
  EPA STORM WATER MANAGEMENT MODEL - VERSION 5.0 (Build 5.0.022)
  --------------------------------------------------------------

  
  *********************************************************
  NOTE: The summary statistics displayed in this report are
  based on results found at every computational time step,  
  not just on results from each reporting time step.
  *********************************************************
  
  ****************
  Analysis Options
  ****************
  Flow Units ............... CFS
  Process Models:
    Rainfall/Runoff ........ YES
    Snowmelt ............... NO
    Groundwater ............ NO
    Flow Routing ........... YES
    Ponding Allowed ........ YES
    Water Quality .......... NO
  Infiltration Method ...... GREEN_AMPT
  Flow Routing Method ...... DYNWAVE
  Starting Date ............ JAN-01-1990 00:00:00
  Ending Date .............. JAN-02-1990 00:00:00
  Antecedent Dry Days ...... 0.0
  Report Time Step ......... 00:01:00
  Wet Time Step ............ 00:01:00
  Dry Time Step ............ 00:01:00
  Routing Time Step ........ 5.00 sec
  

  WARNING 04: minimum elevation drop used for Conduit D67_26.A_1

  WARNING 04: minimum elevation drop used for Conduit D68_McKean_Trunk_49

  WARNING 04: minimum elevation drop used for Conduit D67_Trunk_22

  WARNING 04: minimum elevation drop used for Conduit D67_Trunk_25

  WARNING 04: minimum elevation drop used for Conduit D67_Trunk_28

  WARNING 02: maximum depth increased for Node D68_McKean_3_10

  WARNING 02: maximum depth increased for Node D68_McKean_Trunk_34

  WARNING 02: maximum depth increased for Node D67_Trunk_67

  WARNING 02: maximum depth increased for Node D67_21_7

  WARNING 02: maximum depth increased for Node D67_Trunk_70

  WARNING 02: maximum depth increased for Node D67_17.B_10

  WARNING 02: maximum depth increased for Node D67_21.B_1

  WARNING 02: maximum depth increased for Node D67_Trunk_64

  WARNING 02: maximum depth increased for Node D67_Trunk_61

  WARNING 02: maximum depth increased for Node D68_SnyderAve_20_1

  WARNING 02: maximum depth increased for Node D68_SnyderAve_12_10

  WARNING 02: maximum depth increased for Node D68_SnyderAve_Trunk_100

  WARNING 02: maximum depth increased for Node D68_SnyderAve_12.A_4

  WARNING 02: maximum depth increased for Node D68_SnyderAve_Trunk_10
  
  **************************        Volume         Depth
  Runoff Quantity Continuity     acre-feet        inches
  **************************     ---------       -------
  Total Precipitation ......        68.420         4.800
  Evaporation Loss .........         0.000         0.000
  Infiltration Loss ........        17.577         1.233
  Surface Runoff ...........        50.672         3.555
  Final Surface Storage ....         0.195         0.014
  Continuity Error (%) .....        -0.036
  
  
  **************************        Volume        Volume
  Flow Routing Continuity        acre-feet      10^6 gal
  **************************     ---------     ---------
  Dry Weather Inflow .......        20.820         6.785
  Wet Weather Inflow .......        50.662        16.509
  Groundwater Inflow .......         0.000         0.000
  RDII Inflow ..............         0.000         0.000
  External Inflow ..........         0.000         0.000
  External Outflow .........        29.014         9.455
  Internal Outflow .........         0.985         0.321
  Storage Losses ...........         0.000         0.000
  Initial Stored Volume ....         0.370         0.121
  Final Stored Volume ......        19.998         6.517
  Continuity Error (%) .....        30.416
  
  
  *************************
  Highest Continuity Errors
  *************************
  Node ID66-000 (42.13%)
  Node D68_SnyderAve_22.B_1 (37.80%)
  Node D68_McKean_Trunk_52 (28.38%)
  Node D68_SnyderAve_22_25 (24.87%)
  Node D66_6.A_4 (24.17%)
  
  
  ***************************
  Time-Step Critical Elements
  ***************************
  Link D67_24_4 (45.86%)
  Link D67_24_1 (5.76%)
  Link D67_9_1 (2.62%)
  Link D67_18.A_1 (2.61%)
  Link D67_Trunk_34 (1.80%)
  
  
  ********************************
  Highest Flow Instability Indexes
  ********************************
  Link D68_SnyderAve_15_1 (102)
  Link D68_SnyderAve_17_4 (99)
  Link D68_SnyderAve_20.A_7 (95)
  Link D68_SnyderAve_20.B_7 (88)
  Link D68_McKean_03.C_1 (88)
  
  
  *************************
  Routing Time Step Summary
  *************************
  Minimum Time Step           :     0.50 sec
  Average Time Step           :     3.84 sec
  Maximum Time Step           :     5.00 sec
  Percent in Steady State     :     0.00
  Average Iterations per Step :     6.25
  
  
  ***************************
  Subcatchment Runoff Summary
  ***************************
  
  --------------------------------------------------------------------------------------------------------
                            Total      Total      Total      Total      Total       Total     Peak  Runoff
                           Precip      Runon       Evap      Infil     Runoff      Runoff   Runoff   Coeff
  Subcatchment                 in         in         in         in         in    10^6 gal      CFS
  --------------------------------------------------------------------------------------------------------
  D66_1_1_D66_Trunk_88_SHEDS       4.80       0.00       0.00       1.46       3.33        0.31    14.00   0.693
  D66_11_16_D66_11_4_SHEDS       4.80       0.00       0.00       0.90       3.89        0.00     0.16   0.811
  D66_11_4_D66_11_13_SHEDS       4.80       0.00       0.00       0.90       3.89        0.00     0.15   0.811
  D66_13_10_D66_13_1_SHEDS       4.80       0.00       0.00       1.31       3.49        0.00     0.20   0.726
  D66_13_7_D66_13_10_SHEDS       4.80       0.00       0.00       1.01       3.78        0.01     0.33   0.787
  D66_2_4_D66_Trunk_88_SHEDS       4.80       0.00       0.00       2.07       2.72        0.00     0.07   0.567
  D66_3_1_D66_Trunk_163_SHEDS       4.80       0.00       0.00       1.18       3.61        0.23     9.81   0.752
  D66_6.A_4_D66_6_13_SHEDS       4.80       0.00       0.00       0.90       3.89        0.00     0.17   0.810
  D66_6.A_7_D66_6.A_4_SHEDS       4.80       0.00       0.00       0.90       3.89        0.00     0.04   0.810
  D66_6.B_1_D66_6.B_10_SHEDS       4.80       0.00       0.00       0.90       3.89        0.00     0.05   0.811
  D66_6.B_10_D66_6_4_SHEDS       4.80       0.00       0.00       0.90       3.89        0.01     0.22   0.811
  D66_6.B_4_D66_6.B_1_SHEDS       4.80       0.00       0.00       1.26       3.53        0.09     3.77   0.735
  D66_6.B_7_D66_6.B_4_SHEDS       4.80       0.00       0.00       1.40       3.40        0.03     1.20   0.707
  D66_6_1_D66_6_4_SHEDS       4.80       0.00       0.00       1.01       3.78        0.01     0.58   0.788
  D66_6_13_D66_6_7_SHEDS       4.80       0.00       0.00       0.98       3.81        0.00     0.20   0.794
  D66_6_4_D66_6_13_SHEDS       4.80       0.00       0.00       0.96       3.82        0.04     1.52   0.797
  D66_6_7_D66_6_10_SHEDS       4.80       0.00       0.00       0.96       3.82        0.08     3.42   0.796
  D66_8.B_4_D66_8_13_SHEDS       4.80       0.00       0.00       0.90       3.89        0.00     0.05   0.811
  D66_8.C_1_D66_8_1_SHEDS       4.80       0.00       0.00       0.90       3.89        0.01     0.25   0.811
  D66_8.C_4_D66_8.C_1_SHEDS       4.80       0.00       0.00       1.04       3.75        0.10     4.10   0.782
  D66_8_1_D66_8_13_SHEDS       4.80       0.00       0.00       1.12       3.67        0.02     0.93   0.765
  D66_8_13_D66_8_7_SHEDS       4.80       0.00       0.00       1.07       3.72        0.03     1.06   0.775
  D66_8_4_D66_8_1_SHEDS       4.80       0.00       0.00       0.90       3.89        0.00     0.05   0.811
  D66_8_4_D67_19_13_SHEDS       4.80       0.00       0.00       0.90       3.89        0.00     0.02   0.811
  D66_Trunk_10_D66_Trunk_139_SHEDS       4.80       0.00       0.00       1.54       3.25        0.51    23.03   0.676
  D66_Trunk_109_D66_Trunk_163_SHEDS       4.80       0.00       0.00       0.90       3.89        0.00     0.00   0.811
  D66_Trunk_133_D66_Trunk_157_SHEDS       4.80       0.00       0.00       2.46       2.34        0.06     3.76   0.487
  D66_Trunk_157_D66_Trunk_67_SHEDS       4.80       0.00       0.00       2.51       2.29        0.04     2.37   0.476
  D66_Trunk_163_D66_Trunk_88_SHEDS       4.80       0.00       0.00       0.90       3.89        0.01     0.30   0.810
  D66_Trunk_67_D66_Trunk_10_SHEDS       4.80       0.00       0.00       2.47       2.33        0.03     1.65   0.486
  D66_Trunk_88_D66_Trunk_133_SHEDS       4.80       0.00       0.00       1.95       2.85        0.00     0.13   0.593
  D67_1_1_D67_Trunk_1_SHEDS       4.80       0.00       0.00       1.05       3.74        0.06     2.59   0.779
  D67_10_1_D67_Trunk_28_SHEDS       4.80       0.00       0.00       1.11       3.67        0.54    22.71   0.766
  D67_11.A_4_D67_11.A_1_SHEDS       4.80       0.00       0.00       1.12       3.67        0.29    12.22   0.764
  D67_11_1_D67_Trunk_31_SHEDS       4.80       0.00       0.00       1.13       3.66        0.15     6.21   0.762
  D67_11_4_D67_11_1_SHEDS       4.80       0.00       0.00       0.96       3.83        0.10     4.04   0.797
  D67_12_1_D67_Trunk_34_SHEDS       4.80       0.00       0.00       0.90       3.89        0.00     0.11   0.811
  D67_12_4_D67_12_1_SHEDS       4.80       0.00       0.00       1.07       3.72        0.18     7.69   0.774
  D67_13.A_1_D67_13_4_SHEDS       4.80       0.00       0.00       1.18       3.62        0.00     0.12   0.753
  D67_13.A_4_D67_13.A_1_SHEDS       4.80       0.00       0.00       1.02       3.77        0.07     3.02   0.786
  D67_13_1_D67_Trunk_43_SHEDS       4.80       0.00       0.00       1.44       3.35        0.08     3.68   0.699
  D67_13_4_D67_13_1_SHEDS       4.80       0.00       0.00       1.05       3.74        0.24    10.20   0.779
  D67_14_1_D67_Trunk_43_SHEDS       4.80       0.00       0.00       1.08       3.70        0.25    10.30   0.771
  D67_15_1_D67_Trunk_46_SHEDS       4.80       0.00       0.00       0.90       3.89        0.00     0.17   0.810
  D67_16_1_D67_Trunk_46_SHEDS       4.80       0.00       0.00       0.90       3.88        0.02     0.94   0.809
  D67_17.A_1_D67_17_4_SHEDS       4.80       0.00       0.00       0.99       3.78        0.00     0.15   0.788
  D67_17.A_4_D67_17.A_1_SHEDS       4.80       0.00       0.00       0.91       3.86        0.00     0.05   0.805
  D67_17.A_7_D67_17.A_4_SHEDS       4.80       0.00       0.00       1.23       3.56        0.16     7.05   0.741
  D67_17.B_1_D67_17_10_SHEDS       4.80       0.00       0.00       0.94       3.84        0.00     0.10   0.801
  D67_17.B_10_D67_17.B_7_SHEDS       4.80       0.00       0.00       0.90       3.89        0.00     0.06   0.811
  D67_17.B_13_D67_17.B_10_SHEDS       4.80       0.00       0.00       1.13       3.66        0.16     6.92   0.762
  D67_17.B_4_D67_17.B_1_SHEDS       4.80       0.00       0.00       0.90       3.89        0.00     0.04   0.810
  D67_17.B_7_D67_17.B_4_SHEDS       4.80       0.00       0.00       0.90       3.89        0.00     0.01   0.811
  D67_17_1_D67_Trunk_49_SHEDS       4.80       0.00       0.00       1.98       2.81        0.00     0.07   0.586
  D67_17_10_D67_17_7_SHEDS       4.80       0.00       0.00       1.23       3.56        0.01     0.47   0.742
  D67_17_13_D67_17_10_SHEDS       4.80       0.00       0.00       1.24       3.55        0.04     1.93   0.739
  D67_17_16_D67_17_13_SHEDS       4.80       0.00       0.00       0.90       3.89        0.00     0.12   0.811
  D67_17_19_D67_17_16_SHEDS       4.80       0.00       0.00       0.90       3.89        0.00     0.19   0.811
  D67_17_22_D67_17_19_SHEDS       4.80       0.00       0.00       0.97       3.82        0.08     3.34   0.796
  D67_17_4_D67_17_1_SHEDS       4.80       0.00       0.00       1.54       3.25        0.03     1.32   0.678
  D67_17_7_D67_17_4_SHEDS       4.80       0.00       0.00       1.23       3.55        0.04     1.87   0.740
  D67_18.A_1_D67_18_4_SHEDS       4.80       0.00       0.00       0.91       3.87        0.00     0.02   0.807
  D67_18.A_10_D67_18.A_7_SHEDS       4.80       0.00       0.00       1.07       3.72        0.09     3.79   0.775
  D67_18.A_13_D67_18.A_10_SHEDS       4.80       0.00       0.00       0.90       3.89        0.00     0.05   0.810
  D67_18.A_16_D67_18.A_13_SHEDS       4.80       0.00       0.00       0.91       3.87        0.00     0.02   0.807
  D67_18.A_4_D67_18.A_1_SHEDS       4.80       0.00       0.00       0.88       3.90        0.00     0.00   0.812
  D67_18.A_7_D67_18.A_4_SHEDS       4.80       0.00       0.00       1.26       3.53        0.09     3.77   0.735
  D67_18.B_1_D67_18_7_SHEDS       4.80       0.00       0.00       1.17       3.62        0.04     1.75   0.753
  D67_18.B_4_D67_18.B_1_SHEDS       4.80       0.00       0.00       1.15       3.64        0.12     5.11   0.757
  D67_18.D_1_D67_18_16_SHEDS       4.80       0.00       0.00       1.09       3.70        0.01     0.42   0.771
  D67_18_1_D67_Trunk_49_SHEDS       4.80       0.00       0.00       1.55       3.25        0.00     0.06   0.677
  D67_18_10_D67_18_7_SHEDS       4.80       0.00       0.00       1.33       3.46        0.07     3.03   0.720
  D67_18_13_D67_18_10_SHEDS       4.80       0.00       0.00       1.21       3.58        0.11     4.58   0.747
  D67_18_16_D67_18_13_SHEDS       4.80       0.00       0.00       1.12       3.67        0.04     1.65   0.765
  D67_18_19_D67_18_16_SHEDS       4.80       0.00       0.00       0.90       3.89        0.00     0.00   0.811
  D67_18_22_D67_18_19_SHEDS       4.80       0.00       0.00       1.08       3.71        0.05     2.13   0.773
  D67_18_25_D67_18_22_SHEDS       4.80       0.00       0.00       0.90       3.89        0.00     0.14   0.810
  D67_18_28_D67_18_25_SHEDS       4.80       0.00       0.00       0.90       3.89        0.00     0.05   0.811
  D67_18_31_D67_18_28_SHEDS       4.80       0.00       0.00       0.90       3.89        0.01     0.22   0.810
  D67_18_34_D67_18_31_SHEDS       4.80       0.00       0.00       0.90       3.89        0.00     0.00   0.811
  D67_18_37_D67_18_34_SHEDS       4.80       0.00       0.00       1.31       3.48        0.04     1.89   0.725
  D67_18_4_D67_18_1_SHEDS       4.80       0.00       0.00       1.71       3.09        0.04     1.83   0.643
  D67_18_40_D67_18_37_SHEDS       4.80       0.00       0.00       1.25       3.54        0.05     2.41   0.738
  D67_18_7_D67_18_4_SHEDS       4.80       0.00       0.00       1.29       3.50        0.04     1.75   0.729
  D67_19.A_1_D67_19_4_SHEDS       4.80       0.00       0.00       0.90       3.89        0.00     0.12   0.811
  D67_19.A_4_D67_19.A_1_SHEDS       4.80       0.00       0.00       1.20       3.59        0.20     8.69   0.748
  D67_19.B_1_D67_19_10_SHEDS       4.80       0.00       0.00       0.98       3.81        0.03     1.28   0.793
  D67_19.C_1_D67_19_13_SHEDS       4.80       0.00       0.00       1.17       3.63        0.01     0.58   0.755
  D67_19.C_4_D67_19.C_1_SHEDS       4.80       0.00       0.00       0.90       3.89        0.02     0.97   0.810
  D67_19_1_D67_Trunk_64_SHEDS       4.80       0.00       0.00       0.90       3.89        0.00     0.06   0.811
  D67_19_10_D67_19_7_SHEDS       4.80       0.00       0.00       0.90       3.89        0.00     0.01   0.811
  D67_19_13_D67_19_10_SHEDS       4.80       0.00       0.00       0.90       3.89        0.00     0.02   0.811
  D67_19_4_D67_19_1_SHEDS       4.80       0.00       0.00       0.92       3.87        0.06     2.57   0.807
  D67_19_7_D67_19_4_SHEDS       4.80       0.00       0.00       0.91       3.88        0.03     1.04   0.808
  D67_2_1_D67_Trunk_4_SHEDS       4.80       0.00       0.00       0.91       3.86        0.00     0.05   0.805
  D67_20.A_1_D67_20_4_SHEDS       4.80       0.00       0.00       0.90       3.89        0.00     0.10   0.811
  D67_20.A_10_D67_20.A_7_SHEDS       4.80       0.00       0.00       1.24       3.55        0.08     3.45   0.740
  D67_20.A_4_D67_20.A_1_SHEDS       4.80       0.00       0.00       0.90       3.89        0.01     0.38   0.810
  D67_20.A_7_D67_20.A_4_SHEDS       4.80       0.00       0.00       1.17       3.62        0.07     2.92   0.753
  D67_20.B_1_D67_20_10_SHEDS       4.80       0.00       0.00       0.90       3.89        0.00     0.12   0.811
  D67_20.B_4_D67_20.B_1_SHEDS       4.80       0.00       0.00       1.47       3.32        0.14     6.61   0.692
  D67_20_1_D67_Trunk_64_SHEDS       4.80       0.00       0.00       0.90       3.89        0.00     0.06   0.811
  D67_20_10_D67_20_7_SHEDS       4.80       0.00       0.00       0.90       3.89        0.01     0.32   0.810
  D67_20_13_D67_20_10_SHEDS       4.80       0.00       0.00       0.90       3.89        0.00     0.02   0.811
  D67_20_16_D67_20_13_SHEDS       4.80       0.00       0.00       0.92       3.87        0.03     1.04   0.807
  D67_20_4_D67_20_1_SHEDS       4.80       0.00       0.00       0.94       3.85        0.03     1.33   0.801
  D67_20_7_D67_20_4_SHEDS       4.80       0.00       0.00       0.90       3.89        0.01     0.57   0.810
  D67_21.B_1_D67_21_7_SHEDS       4.80       0.00       0.00       0.94       3.85        0.01     0.41   0.802
  D67_21.B_1_D67_23_10_SHEDS       4.80       0.00       0.00       1.09       3.70        0.10     4.44   0.770
  D67_21_1_D67_Trunk_70_SHEDS       4.80       0.00       0.00       0.90       3.89        0.00     0.01   0.811
  D67_21_10_D67_21_7_SHEDS       4.80       0.00       0.00       0.90       3.89        0.00     0.17   0.811
  D67_21_13_D67_21_10_SHEDS       4.80       0.00       0.00       1.47       3.32        0.01     0.65   0.691
  D67_21_4_D67_21_1_SHEDS       4.80       0.00       0.00       0.89       3.90        0.00     0.05   0.813
  D67_21_7_D67_21_4_SHEDS       4.80       0.00       0.00       1.08       3.71        0.03     1.30   0.772
  D67_22_1_D67_Trunk_70_SHEDS       4.80       0.00       0.00       1.07       3.72        0.02     0.63   0.776
  D67_23_1_D67_Trunk_80_SHEDS       4.80       0.00       0.00       0.90       3.89        0.00     0.04   0.811
  D67_23_10_D67_23_7_SHEDS       4.80       0.00       0.00       0.90       3.89        0.01     0.53   0.810
  D67_23_13_D67_23_10_SHEDS       4.80       0.00       0.00       1.18       3.61        0.01     0.27   0.753
  D67_23_16_D67_23_13_SHEDS       4.80       0.00       0.00       1.14       3.65        0.02     1.02   0.761
  D67_23_19_D67_23_16_SHEDS       4.80       0.00       0.00       0.91       3.88        0.02     0.64   0.808
  D67_23_4_D67_23_1_SHEDS       4.80       0.00       0.00       0.90       3.89        0.00     0.01   0.811
  D67_23_7_D67_23_4_SHEDS       4.80       0.00       0.00       0.90       3.89        0.01     0.22   0.810
  D67_24_1_D67_Trunk_80_SHEDS       4.80       0.00       0.00       0.90       3.89        0.00     0.06   0.811
  D67_24_10_D67_24_7_SHEDS       4.80       0.00       0.00       0.91       3.88        0.03     1.25   0.808
  D67_24_10_D68_McKean_7_7_SHEDS       4.80       0.00       0.00       1.03       3.76        0.06     2.56   0.783
  D67_24_4_D67_24_1_SHEDS       4.80       0.00       0.00       0.90       3.89        0.01     0.29   0.810
  D67_24_7_D67_24_4_SHEDS       4.80       0.00       0.00       1.00       3.79        0.02     0.86   0.789
  D67_25_1_D67_Trunk_88_SHEDS       4.80       0.00       0.00       0.90       3.89        0.00     0.05   0.811
  D67_25_10_D67_25_7_SHEDS       4.80       0.00       0.00       0.90       3.89        0.04     1.70   0.810
  D67_25_4_D67_25_1_SHEDS       4.80       0.00       0.00       0.90       3.89        0.01     0.30   0.810
  D67_25_7_D67_25_4_SHEDS       4.80       0.00       0.00       0.94       3.85        0.03     1.42   0.801
  D67_26.A_1_D67_26_10_SHEDS       4.80       0.00       0.00       0.90       3.89        0.00     0.14   0.811
  D67_26.A_4_D67_26.A_1_SHEDS       4.80       0.00       0.00       1.36       3.43        0.05     2.44   0.715
  D67_26.A_7_D67_26.A_4_SHEDS       4.80       0.00       0.00       0.90       3.89        0.00     0.04   0.811
  D67_26.B_1_D67_26_19_SHEDS       4.80       0.00       0.00       0.90       3.89        0.00     0.14   0.811
  D67_26.B_4_D67_26.B_1_SHEDS       4.80       0.00       0.00       1.08       3.71        0.03     1.13   0.773
  D67_26_1_D67_Trunk_88_SHEDS       4.80       0.00       0.00       0.90       3.89        0.00     0.01   0.810
  D67_26_10_D67_26_7_SHEDS       4.80       0.00       0.00       1.02       3.77        0.02     0.97   0.786
  D67_26_13_D67_26_10_SHEDS       4.80       0.00       0.00       0.90       3.89        0.00     0.05   0.811
  D67_26_19_D67_26_13_SHEDS       4.80       0.00       0.00       0.90       3.89        0.01     0.39   0.810
  D67_26_4_D67_26_1_SHEDS       4.80       0.00       0.00       0.90       3.89        0.00     0.02   0.810
  D67_26_7_D67_26_4_SHEDS       4.80       0.00       0.00       0.95       3.84        0.04     1.55   0.800
  D67_27_1_D67_Trunk_97_SHEDS       4.80       0.00       0.00       0.90       3.89        0.00     0.09   0.811
  D67_27_4_D67_27_1_SHEDS       4.80       0.00       0.00       1.27       3.52        0.14     6.17   0.734
  D67_28_1_D67_Trunk_100_SHEDS       4.80       0.00       0.00       0.94       3.84        0.05     2.24   0.801
  D67_29.C_1_D67_29_4_SHEDS       4.80       0.00       0.00       0.99       3.80        0.00     0.05   0.791
  D67_29.C_10_D67_29.C_7_SHEDS       4.80       0.00       0.00       1.31       3.48        0.12     5.31   0.725
  D67_29.C_4_D67_29.C_1_SHEDS       4.80       0.00       0.00       0.83       3.96        0.00     0.00   0.824
  D67_29.C_7_D67_29.C_4_SHEDS       4.80       0.00       0.00       0.90       3.89        0.00     0.00   0.811
  D67_29.E_2_D67_29_7_SHEDS       4.80       0.00       0.00       0.90       3.89        0.00     0.05   0.810
  D67_29.E_4_D67_29.E_2_SHEDS       4.80       0.00       0.00       1.36       3.43        0.11     5.18   0.715
  D67_29_1_D67_Trunk_103_SHEDS       4.80       0.00       0.00       0.90       3.89        0.00     0.07   0.811
  D67_29_10_D67_29_7_SHEDS       4.80       0.00       0.00       1.24       3.56        0.00     0.19   0.741
  D67_29_4_D67_29_1_SHEDS       4.80       0.00       0.00       1.01       3.77        0.03     1.35   0.786
  D67_29_7_D67_29_4_SHEDS       4.80       0.00       0.00       1.11       3.68        0.03     1.46   0.766
  D67_3_1_D67_Trunk_4_SHEDS       4.80       0.00       0.00       0.90       3.89        0.01     0.60   0.810
  D67_30.C_1_D67_30_10_SHEDS       4.80       0.00       0.00       1.28       3.51        0.11     4.88   0.731
  D67_30.D_1_D67_30_13_SHEDS       4.80       0.00       0.00       0.89       3.90        0.00     0.01   0.812
  D67_30.D_10_D67_30.D_7_SHEDS       4.80       0.00       0.00       1.52       3.27        0.08     3.66   0.682
  D67_30.D_4_D67_30.D_1_SHEDS       4.80       0.00       0.00       0.90       3.89        0.00     0.05   0.810
  D67_30.D_7_D67_30.D_4_SHEDS       4.80       0.00       0.00       1.25       3.54        0.07     2.88   0.737
  D67_30_1_D67_Trunk_103_SHEDS       4.80       0.00       0.00       0.90       3.89        0.00     0.04   0.811
  D67_30_10_D67_30_4_SHEDS       4.80       0.00       0.00       0.96       3.83        0.03     1.05   0.798
  D67_30_13_D67_30_10_SHEDS       4.80       0.00       0.00       0.94       3.85        0.04     1.53   0.801
  D67_30_16_D67_30_13_SHEDS       4.80       0.00       0.00       0.90       3.89        0.00     0.01   0.811
  D67_30_19_D67_30_16_SHEDS       4.80       0.00       0.00       1.13       3.67        0.03     1.44   0.764
  D67_30_4_D67_30_1_SHEDS       4.80       0.00       0.00       0.90       3.89        0.00     0.03   0.811
  D67_31_1_D67_Trunk_115_SHEDS       4.80       0.00       0.00       0.90       3.89        0.00     0.03   0.811
  D67_31_4_D67_31_1_SHEDS       4.80       0.00       0.00       0.90       3.89        0.00     0.02   0.811
  D67_31_7_D67_31_4_SHEDS       4.80       0.00       0.00       1.11       3.68        0.00     0.15   0.767
  D67_32.E_1_D67_32_7_SHEDS       4.80       0.00       0.00       1.43       3.36        0.11     5.27   0.700
  D67_32_1_D67_Trunk_115_SHEDS       4.80       0.00       0.00       0.90       3.89        0.00     0.08   0.810
  D67_32_10_D67_32_7_SHEDS       4.80       0.00       0.00       0.94       3.85        0.02     0.92   0.802
  D67_32_4_D67_32_1_SHEDS       4.80       0.00       0.00       1.13       3.66        0.00     0.01   0.763
  D67_32_7_D67_32_4_SHEDS       4.80       0.00       0.00       1.27       3.52        0.02     1.09   0.733
  D67_33_1_D67_Trunk_130_SHEDS       4.80       0.00       0.00       0.90       3.89        0.00     0.05   0.811
  D67_33_10_D67_33_7_SHEDS       4.80       0.00       0.00       1.02       3.77        0.03     1.12   0.785
  D67_33_4_D67_33_1_SHEDS       4.80       0.00       0.00       0.90       3.89        0.00     0.00   0.811
  D67_33_7_D67_33_4_SHEDS       4.80       0.00       0.00       0.90       3.89        0.00     0.04   0.810
  D67_34.A_4_D67_34.A_1_SHEDS       4.80       0.00       0.00       1.25       3.54        0.11     5.07   0.737
  D67_4_1_D67_Trunk_7_SHEDS       4.80       0.00       0.00       0.90       3.88        0.00     0.00   0.808
  D67_9_1_D67_Trunk_19_SHEDS       4.80       0.00       0.00       3.00       1.81        0.00     0.00   0.376
  D67_9_4_D67_9_1_SHEDS       4.80       0.00       0.00       1.38       3.41        0.25    11.46   0.710
  D67_Trunk_1_P_D67_SHEDS       4.80       0.00       0.00       0.90       3.89        0.00     0.02   0.811
  D67_Trunk_10_D67_Trunk_7_SHEDS       4.80       0.00       0.00       0.90       3.89        0.02     0.66   0.810
  D67_Trunk_100_D67_Trunk_97_SHEDS       4.80       0.00       0.00       0.90       3.89        0.00     0.03   0.811
  D67_Trunk_103_D67_Trunk_100_SHEDS       4.80       0.00       0.00       1.05       3.74        0.02     1.02   0.780
  D67_Trunk_106_D67_Trunk_103_SHEDS       4.80       0.00       0.00       0.90       3.89        0.00     0.04   0.811
  D67_Trunk_109_D67_Trunk_106_SHEDS       4.80       0.00       0.00       1.28       3.51        0.06     2.49   0.731
  D67_Trunk_112_D67_Trunk_109_SHEDS       4.80       0.00       0.00       1.01       3.78        0.05     2.22   0.787
  D67_Trunk_115_D67_Trunk_112_SHEDS       4.80       0.00       0.00       0.90       3.89        0.00     0.00   0.811
  D67_Trunk_118_D67_Trunk_115_SHEDS       4.80       0.00       0.00       0.90       3.89        0.00     0.01   0.811
  D67_Trunk_121_D67_Trunk_118_SHEDS       4.80       0.00       0.00       0.90       3.89        0.00     0.00   0.811
  D67_Trunk_124_D67_Trunk_121_SHEDS       4.80       0.00       0.00       1.07       3.73        0.00     0.11   0.776
  D67_Trunk_127_D67_Trunk_124_SHEDS       4.80       0.00       0.00       1.45       3.34        0.07     3.31   0.697
  D67_Trunk_13_D67_Trunk_10_SHEDS       4.80       0.00       0.00       1.07       3.72        0.09     3.75   0.775
  D67_Trunk_130_D67_Trunk_127_SHEDS       4.80       0.00       0.00       1.26       3.53        0.06     2.84   0.735
  D67_Trunk_133_D67_Trunk_130_SHEDS       4.80       0.00       0.00       0.90       3.89        0.00     0.14   0.810
  D67_Trunk_16_D67_Trunk_13_SHEDS       4.80       0.00       0.00       0.97       3.81        0.49    20.07   0.793
  D67_Trunk_19_D67_Trunk_16_SHEDS       4.80       0.00       0.00       2.99       1.82        0.00     0.02   0.378
  D67_Trunk_22_D67_Trunk_19_SHEDS       4.80       0.00       0.00       3.00       1.80        0.00     0.00   0.376
  D67_Trunk_25_D67_Trunk_22_SHEDS       4.80       0.00       0.00       3.00       1.80        0.00     0.01   0.376
  D67_Trunk_28_D67_Trunk_25_SHEDS       4.80       0.00       0.00       3.03       1.77        0.00     0.00   0.368
  D67_Trunk_31_D67_Trunk_28_SHEDS       4.80       0.00       0.00       0.92       3.87        0.02     0.71   0.806
  D67_Trunk_34_D67_Trunk_31_SHEDS       4.80       0.00       0.00       0.90       3.89        0.00     0.19   0.811
  D67_Trunk_37_D67_Trunk_34_SHEDS       4.80       0.00       0.00       1.11       3.68        0.08     3.22   0.766
  D67_Trunk_4_D67_Trunk_1_SHEDS       4.80       0.00       0.00       0.91       3.88        0.00     0.01   0.808
  D67_Trunk_41_D67_Trunk_37_SHEDS       4.80       0.00       0.00       1.98       2.82        0.14     7.62   0.587
  D67_Trunk_43_D67_Trunk_41_SHEDS       4.80       0.00       0.00       0.90       3.88        0.00     0.01   0.808
  D67_Trunk_46_D67_Trunk_43_SHEDS       4.80       0.00       0.00       1.59       3.20        0.02     0.99   0.667
  D67_Trunk_49_D67_Trunk_46_SHEDS       4.80       0.00       0.00       1.20       3.59        0.01     0.58   0.748
  D67_Trunk_52_D67_Trunk_49_SHEDS       4.80       0.00       0.00       1.71       3.08        0.00     0.01   0.642
  D67_Trunk_52_D67_TrunkC_16_SHEDS       4.80       0.00       0.00       1.29       3.50        0.07     2.94   0.730
  D67_Trunk_55_D67_Trunk_52_SHEDS       4.80       0.00       0.00       0.92       3.85        0.00     0.10   0.803
  D67_Trunk_58_D67_Trunk_55_SHEDS       4.80       0.00       0.00       1.60       3.19        0.00     0.04   0.665
  D67_Trunk_61_D67_Trunk_58_SHEDS       4.80       0.00       0.00       2.07       2.73        0.09     5.16   0.568
  D67_Trunk_64_D67_Trunk_61_SHEDS       4.80       0.00       0.00       1.12       3.67        0.07     2.79   0.765
  D67_Trunk_67_D67_Trunk_64_SHEDS       4.80       0.00       0.00       0.90       3.89        0.00     0.09   0.810
  D67_Trunk_7_D67_Trunk_4_SHEDS       4.80       0.00       0.00       0.91       3.88        0.00     0.01   0.808
  D67_Trunk_70_D67_Trunk_67_SHEDS       4.80       0.00       0.00       0.90       3.89        0.02     0.91   0.810
  D67_Trunk_74_D67_Trunk_70_SHEDS       4.80       0.00       0.00       0.90       3.89        0.00     0.01   0.811
  D67_Trunk_76_D67_Trunk_74_SHEDS       4.80       0.00       0.00       1.11       3.67        0.07     2.96   0.766
  D67_Trunk_80_D67_Trunk_76_SHEDS       4.80       0.00       0.00       0.94       3.85        0.05     2.13   0.802
  D67_Trunk_82_D67_Trunk_80_SHEDS       4.80       0.00       0.00       0.90       3.89        0.00     0.00   0.811
  D67_Trunk_86_D67_Trunk_82_SHEDS       4.80       0.00       0.00       0.90       3.89        0.00     0.07   0.811
  D67_Trunk_88_D67_Trunk_86_SHEDS       4.80       0.00       0.00       0.90       3.89        0.00     0.00   0.810
  D67_Trunk_91_D67_Trunk_88_SHEDS       4.80       0.00       0.00       0.90       3.89        0.00     0.00   0.810
  D67_Trunk_94_D67_Trunk_91_SHEDS       4.80       0.00       0.00       0.90       3.89        0.00     0.13   0.811
  D67_Trunk_97_D67_Trunk_94_SHEDS       4.80       0.00       0.00       1.04       3.75        0.02     0.82   0.781
  D67_TrunkC_10_P_TD67_DCA_SHEDS       4.80       0.00       0.00       1.32       3.47        0.07     3.28   0.723
  D67_TrunkC_13_D67_TrunkC_10_SHEDS       4.80       0.00       0.00       1.38       3.41        0.26    11.61   0.710
  D67_TrunkC_16_D67_TrunkC_13_SHEDS       4.80       0.00       0.00       0.99       3.79        0.20     8.00   0.790
  D68_McKean_03.A_1_D68_McKean_3_4_SHEDS       4.80       0.00       0.00       0.90       3.89        0.00     0.01   0.811
  D68_McKean_03.A_4_D68_McKean_03.A_1_SHEDS       4.80       0.00       0.00       1.49       3.31        0.11     5.00   0.689
  D68_McKean_03.C_1_D68_McKean_3_7_SHEDS       4.80       0.00       0.00       0.91       3.89        0.00     0.02   0.809
  D68_McKean_03.C_4_D68_McKean_03.C_1_SHEDS       4.80       0.00       0.00       1.38       3.41        0.05     2.33   0.710
  D68_McKean_03.C_7_D68_McKean_03.C_4_SHEDS       4.80       0.00       0.00       1.27       3.52        0.05     2.35   0.733
  D68_McKean_09.A_1_D68_McKean_9_4_SHEDS       4.80       0.00       0.00       0.90       3.89        0.00     0.03   0.811
  D68_McKean_09.A_4_D68_McKean_09.A_1_SHEDS       4.80       0.00       0.00       1.29       3.50        0.11     5.07   0.730
  D68_McKean_09.B_1_D68_McKean_9_7_SHEDS       4.80       0.00       0.00       1.35       3.44        0.12     5.33   0.716
  D68_McKean_1_1_D68_McKean_Trunk_10_SHEDS       4.80       0.00       0.00       0.98       3.80        0.42    17.29   0.792
  D68_McKean_10.A_1_D68_McKean_10_1_SHEDS       4.80       0.00       0.00       0.90       3.89        0.00     0.03   0.811
  D68_McKean_10.C_1_D68_McKean_10_7_SHEDS       4.80       0.00       0.00       0.90       3.89        0.00     0.04   0.810
  D68_McKean_10.D_1_D68_McKean_10_16_SHEDS       4.80       0.00       0.00       0.90       3.89        0.00     0.00   0.811
  D68_McKean_10.E_1_D68_McKean_10_19_SHEDS       4.80       0.00       0.00       0.90       3.89        0.00     0.04   0.811
  D68_McKean_10_1_D68_McKean_Trunk_55_SHEDS       4.80       0.00       0.00       1.08       3.71        0.03     1.17   0.773
  D68_McKean_10_10_D68_McKean_10_7_SHEDS       4.80       0.00       0.00       0.90       3.89        0.00     0.02   0.811
  D68_McKean_10_13_D68_McKean_10_10_SHEDS       4.80       0.00       0.00       0.90       3.89        0.02     0.85   0.810
  D68_McKean_10_16_D68_McKean_10_13_SHEDS       4.80       0.00       0.00       0.96       3.83        0.02     0.72   0.797
  D68_McKean_10_19_D68_McKean_10_16_SHEDS       4.80       0.00       0.00       1.02       3.77        0.02     0.75   0.785
  D68_McKean_10_22_D68_McKean_10_19_SHEDS       4.80       0.00       0.00       0.91       3.88        0.01     0.45   0.809
  D68_McKean_10_4_D68_McKean_10_1_SHEDS       4.80       0.00       0.00       0.90       3.89        0.02     0.83   0.810
  D68_McKean_10_7_D68_McKean_10_4_SHEDS       4.80       0.00       0.00       1.18       3.61        0.03     1.29   0.752
  D68_McKean_11_19_D68_McKean_11_16_SHEDS       4.80       0.00       0.00       1.22       3.57        0.02     1.05   0.744
  D68_McKean_2_1_D68_McKean_Trunk_13_SHEDS       4.80       0.00       0.00       0.91       3.86        0.00     0.06   0.804
  D68_McKean_2_10_D68_McKean_2_7_SHEDS       4.80       0.00       0.00       0.90       3.89        0.02     0.78   0.810
  D68_McKean_2_4_D68_McKean_2_1_SHEDS       4.80       0.00       0.00       0.90       3.88        0.07     2.97   0.809
  D68_McKean_2_7_D68_McKean_2_4_SHEDS       4.80       0.00       0.00       0.90       3.88        0.14     5.84   0.809
  D68_McKean_3_1_D68_McKean_Trunk_16_SHEDS       4.80       0.00       0.00       0.91       3.87        0.00     0.02   0.806
  D68_McKean_3_10_D68_McKean_3_7_SHEDS       4.80       0.00       0.00       1.07       3.72        0.05     2.25   0.776
  D68_McKean_3_4_D68_McKean_3_1_SHEDS       4.80       0.00       0.00       1.35       3.44        0.03     1.49   0.717
  D68_McKean_3_7_D68_McKean_3_4_SHEDS       4.80       0.00       0.00       1.13       3.65        0.05     2.18   0.761
  D68_McKean_4_1_D68_McKean_Trunk_22_SHEDS       4.80       0.00       0.00       0.90       3.89        0.00     0.05   0.811
  D68_McKean_4_4_D68_McKean_4_1_SHEDS       4.80       0.00       0.00       1.21       3.58        0.08     3.53   0.745
  D68_McKean_4_7_D68_McKean_4_4_SHEDS       4.80       0.00       0.00       1.35       3.44        0.03     1.36   0.716
  D68_McKean_5_1_D68_McKean_Trunk_28_SHEDS       4.80       0.00       0.00       1.51       3.28        0.19     8.87   0.684
  D68_McKean_6_1_D68_McKean_Trunk_37_SHEDS       4.80       0.00       0.00       0.90       3.89        0.00     0.06   0.810
  D68_McKean_6_4_D68_McKean_6_1_SHEDS       4.80       0.00       0.00       1.45       3.34        0.21     9.61   0.695
  D68_McKean_7_1_D68_McKean_Trunk_40_SHEDS       4.80       0.00       0.00       1.01       3.78        0.00     0.08   0.787
  D68_McKean_7_4_D68_McKean_7_1_SHEDS       4.80       0.00       0.00       0.99       3.80        0.00     0.18   0.791
  D68_McKean_7_7_D68_McKean_7_4_SHEDS       4.80       0.00       0.00       1.05       3.73        0.03     1.41   0.778
  D68_McKean_8_1_D68_McKean_Trunk_43_SHEDS       4.80       0.00       0.00       1.08       3.71        0.11     4.68   0.772
  D68_McKean_9_1_D68_McKean_Trunk_46_SHEDS       4.80       0.00       0.00       0.90       3.89        0.00     0.02   0.811
  D68_McKean_9_10_D68_McKean_9_7_SHEDS       4.80       0.00       0.00       1.48       3.31        0.05     2.33   0.690
  D68_McKean_9_13_D68_McKean_9_10_SHEDS       4.80       0.00       0.00       1.27       3.53        0.01     0.31   0.735
  D68_McKean_9_16_D68_McKean_9_13_SHEDS       4.80       0.00       0.00       1.22       3.57        0.13     5.79   0.744
  D68_McKean_9_4_D68_McKean_9_1_SHEDS       4.80       0.00       0.00       1.19       3.60        0.03     1.49   0.751
  D68_McKean_9_7_D68_McKean_9_4_SHEDS       4.80       0.00       0.00       1.45       3.34        0.04     1.71   0.696
  D68_McKean_Trunk_10_D68_McKean_Trunk_7_SHEDS       4.80       0.00       0.00       0.94       3.84        0.09     3.67   0.801
  D68_McKean_Trunk_13_D68_McKean_Trunk_10_SHEDS       4.80       0.00       0.00       0.91       3.87        0.15     6.27   0.806
  D68_McKean_Trunk_16_D68_McKean_Trunk_13_SHEDS       4.80       0.00       0.00       0.97       3.81        0.09     3.72   0.794
  D68_McKean_Trunk_19_D68_McKean_Trunk_16_SHEDS       4.80       0.00       0.00       0.90       3.88        0.00     0.00   0.809
  D68_McKean_Trunk_22_D68_McKean_Trunk_19_SHEDS       4.80       0.00       0.00       1.23       3.56        0.14     6.14   0.741
  D68_McKean_Trunk_25_D68_McKean_Trunk_22_SHEDS       4.80       0.00       0.00       0.90       3.89        0.00     0.07   0.811
  D68_McKean_Trunk_28_D68_McKean_Trunk_25_SHEDS       4.80       0.00       0.00       1.18       3.61        0.06     2.65   0.752
  D68_McKean_Trunk_34_D68_McKean_Trunk_28_SHEDS       4.80       0.00       0.00       0.90       3.89        0.00     0.17   0.810
  D68_McKean_Trunk_37_D68_McKean_Trunk_34_SHEDS       4.80       0.00       0.00       1.66       3.13        0.12     6.02   0.652
  D68_McKean_Trunk_40_D68_McKean_Trunk_37_SHEDS       4.80       0.00       0.00       1.52       3.27        0.05     2.22   0.682
  D68_McKean_Trunk_43_D68_McKean_Trunk_40_SHEDS       4.80       0.00       0.00       0.90       3.89        0.00     0.12   0.811
  D68_McKean_Trunk_46_D68_McKean_Trunk_43_SHEDS       4.80       0.00       0.00       1.05       3.74        0.04     1.72   0.779
  D68_McKean_Trunk_49_D68_McKean_Trunk_46_SHEDS       4.80       0.00       0.00       0.90       3.89        0.00     0.03   0.811
  D68_McKean_Trunk_52_D68_McKean_Trunk_49_SHEDS       4.80       0.00       0.00       0.90       3.89        0.00     0.11   0.811
  D68_McKean_Trunk_55_D68_McKean_Trunk_52_SHEDS       4.80       0.00       0.00       1.22       3.57        0.14     6.12   0.743
  D68_McKean_Trunk_7_D68_McKean_Trunk_4_SHEDS       4.80       0.00       0.00       0.96       3.82        0.28    11.44   0.796
  D68_SnyderAve_12.A_1_D68_SnyderAve_12_4_SHEDS       4.80       0.00       0.00       0.90       3.89        0.00     0.00   0.811
  D68_SnyderAve_12.A_4_D68_SnyderAve_12.A_7_SHEDS       4.80       0.00       0.00       1.28       3.51        0.11     5.03   0.731
  D68_SnyderAve_12.A_7_D68_SnyderAve_12.A_1_SHEDS       4.80       0.00       0.00       0.94       3.86        0.00     0.06   0.803
  D68_SnyderAve_12.B_1_D68_SnyderAve_12.B_10_SHEDS       4.80       0.00       0.00       0.97       3.82        0.05     2.01   0.795
  D68_SnyderAve_12.B_10_D68_SnyderAve_12.B_4_SHEDS       4.80       0.00       0.00       1.37       3.42        0.00     0.11   0.712
  D68_SnyderAve_12.B_4_D68_SnyderAve_12_7_SHEDS       4.80       0.00       0.00       0.90       3.89        0.00     0.01   0.811
  D68_SnyderAve_12.B_7_D68_SnyderAve_12.B_1_SHEDS       4.80       0.00       0.00       0.92       3.87        0.05     2.07   0.806
  D68_SnyderAve_12_10_D68_SnyderAve_12_7_SHEDS       4.80       0.00       0.00       1.32       3.47        0.03     1.33   0.723
  D68_SnyderAve_12_4_D68_SnyderAve_12_1_SHEDS       4.80       0.00       0.00       1.21       3.58        0.04     1.77   0.745
  D68_SnyderAve_12_7_D68_SnyderAve_12_4_SHEDS       4.80       0.00       0.00       1.33       3.46        0.04     1.95   0.721
  D68_SnyderAve_15_1_D68_SnyderAve_15_4_SHEDS       4.80       0.00       0.00       1.03       3.76        0.10     4.04   0.782
  D68_SnyderAve_15_4_D68_SnyderAve_Trunk_67_SHEDS       4.80       0.00       0.00       0.92       3.86        0.00     0.06   0.804
  D68_SnyderAve_17_4_D68_SnyderAve_Trunk_100_SHEDS       4.80       0.00       0.00       1.18       3.59        0.00     0.11   0.749
  D68_SnyderAve_18_1_D68_SnyderAve_Trunk_100_SHEDS       4.80       0.00       0.00       1.34       3.45        0.11     4.91   0.719
  D68_SnyderAve_18_4_D68_SnyderAve_18_1_SHEDS       4.80       0.00       0.00       1.19       3.60        0.01     0.32   0.750
  D68_SnyderAve_19.A_4_D68_SnyderAve_19.A_7_SHEDS       4.80       0.00       0.00       1.07       3.72        0.14     5.81   0.775
  D68_SnyderAve_19.A_4_D68_SnyderAve_22.A_13_SHEDS       4.80       0.00       0.00       0.90       3.88        0.06     2.45   0.809
  D68_SnyderAve_20.A_1_D68_SnyderAve_20.A_4_SHEDS       4.80       0.00       0.00       1.49       3.30        0.08     3.66   0.688
  D68_SnyderAve_20.A_4_D68_SnyderAve_20.A_7_SHEDS       4.80       0.00       0.00       1.51       3.28        0.07     3.36   0.683
  D68_SnyderAve_20.A_7_D68_SnyderAve_20_4_SHEDS       4.80       0.00       0.00       0.91       3.86        0.00     0.04   0.805
  D68_SnyderAve_20.B_1_D68_SnyderAve_20.B_7_SHEDS       4.80       0.00       0.00       1.32       3.48        0.05     2.22   0.724
  D68_SnyderAve_20.B_4_D68_SnyderAve_20.B_1_SHEDS       4.80       0.00       0.00       1.26       3.53        0.09     3.83   0.736
  D68_SnyderAve_20.B_7_D68_SnyderAve_20_10_SHEDS       4.80       0.00       0.00       0.90       3.89        0.00     0.04   0.811
  D68_SnyderAve_20_1_D68_SnyderAve_20_7_SHEDS       4.80       0.00       0.00       1.09       3.70        0.02     1.04   0.771
  D68_SnyderAve_20_10_D68_SnyderAve_20_4_SHEDS       4.80       0.00       0.00       1.01       3.78        0.03     1.34   0.788
  D68_SnyderAve_20_4_D68_SnyderAve_Trunk_10_SHEDS       4.80       0.00       0.00       0.91       3.87        0.04     1.47   0.807
  D68_SnyderAve_20_7_D68_SnyderAve_20_10_SHEDS       4.80       0.00       0.00       1.03       3.77        0.00     0.07   0.785
  D68_SnyderAve_21_1_D68_SnyderAve_Trunk_49_SHEDS       4.80       0.00       0.00       0.98       3.80        0.10     4.33   0.792
  D68_SnyderAve_22.A_1_D68_SnyderAve_22_13_SHEDS       4.80       0.00       0.00       0.90       3.89        0.00     0.03   0.811
  D68_SnyderAve_22.A_13_D68_SnyderAve_22.A_7_SHEDS       4.80       0.00       0.00       0.90       3.89        0.00     0.09   0.810
  D68_SnyderAve_22.A_4_D68_SnyderAve_22.A_1_SHEDS       4.80       0.00       0.00       0.90       3.89        0.00     0.00   0.811
  D68_SnyderAve_22.A_7_D68_SnyderAve_22.A_4_SHEDS       4.80       0.00       0.00       0.90       3.89        0.00     0.01   0.811
  D68_SnyderAve_22.B_1_D68_SnyderAve_22_25_SHEDS       4.80       0.00       0.00       0.90       3.89        0.00     0.00   0.811
  D68_SnyderAve_22.B_10_D68_SnyderAve_22.B_4_SHEDS       4.80       0.00       0.00       0.90       3.89        0.00     0.13   0.811
  D68_SnyderAve_22.B_4_D68_SnyderAve_22.B_1_SHEDS       4.80       0.00       0.00       0.90       3.89        0.00     0.01   0.811
  D68_SnyderAve_22_13_D68_SnyderAve_22_37_SHEDS       4.80       0.00       0.00       0.90       3.89        0.03     1.10   0.810
  D68_SnyderAve_22_22_D68_SnyderAve_Trunk_70_SHEDS       4.80       0.00       0.00       0.90       3.89        0.00     0.06   0.811
  D68_SnyderAve_22_25_D68_SnyderAve_22_13_SHEDS       4.80       0.00       0.00       0.90       3.89        0.00     0.04   0.811
  D68_SnyderAve_22_37_D68_SnyderAve_22_22_SHEDS       4.80       0.00       0.00       0.90       3.89        0.01     0.21   0.810
  D68_SnyderAve_23.A_4_D68_SnyderAve_23_4_SHEDS       4.80       0.00       0.00       0.90       3.89        0.01     0.43   0.810
  D68_SnyderAve_23_1_D68_SnyderAve_23_4_SHEDS       4.80       0.00       0.00       1.10       3.69        0.03     1.37   0.769
  D68_SnyderAve_23_4_D68_SnyderAve_Trunk_70_SHEDS       4.80       0.00       0.00       0.98       3.80        0.03     1.41   0.793
  D68_SnyderAve_23_7_D68_SnyderAve_23_1_SHEDS       4.80       0.00       0.00       0.95       3.83        0.03     1.34   0.799
  D68_SnyderAve_3_13_D68_SnyderAve_3_10_SHEDS       4.80       0.00       0.00       2.69       2.11        0.10     7.09   0.439
  D68_SnyderAve_3_22_D68_SnyderAve_3_4_SHEDS       4.80       0.00       0.00       2.37       2.42        0.05     3.38   0.505
  D68_SnyderAve_3_4_D68_SnyderAve_3_13_SHEDS       4.80       0.00       0.00       2.58       2.22        0.07     4.79   0.463
  D68_SnyderAve_5_16_D68_SnyderAve_5_25_SHEDS       4.80       0.00       0.00       0.90       3.89        0.01     0.33   0.810
  D68_SnyderAve_5_25_D68_SnyderAve_5_31_SHEDS       4.80       0.00       0.00       1.20       3.59        0.03     1.39   0.747
  D68_SnyderAve_5_31_D68_SnyderAve_5_19_SHEDS       4.80       0.00       0.00       0.94       3.85        0.05     2.04   0.802
  D68_SnyderAve_5_4_D68_SnyderAve_5_16_SHEDS       4.80       0.00       0.00       1.00       3.79        0.01     0.47   0.789
  D68_SnyderAve_9_1_D68_SnyderAve_9_7_SHEDS       4.80       0.00       0.00       0.90       3.88        0.05     2.16   0.809
  D68_SnyderAve_9_7_D68_SnyderAve_9_4_SHEDS       4.80       0.00       0.00       0.90       3.88        0.13     5.47   0.808
  D68_SnyderAve_Trunk_10_D68_SnyderAve_Trunk_100_SHEDS       4.80       0.00       0.00       1.03       3.75        0.03     1.06   0.781
  D68_SnyderAve_Trunk_100_D68_SnyderAve_Trunk_229_SHEDS       4.80       0.00       0.00       1.31       3.47        0.03     1.53   0.724
  D68_SnyderAve_Trunk_151_D68_SnyderAve_Trunk_70_SHEDS       4.80       0.00       0.00       0.90       3.89        0.00     0.01   0.811
  D68_SnyderAve_Trunk_49_D68_SnyderAve_Trunk_88_SHEDS       4.80       0.00       0.00       1.01       3.78        0.20     8.11   0.787
  D68_SnyderAve_Trunk_70_D68_SnyderAve_Trunk_49_SHEDS       4.80       0.00       0.00       0.90       3.89        0.02     0.94   0.810
  D68_SnyderAve_Trunk_88_D68_SnyderAve_Trunk_10_SHEDS       4.80       0.00       0.00       0.90       3.89        0.00     0.00   0.810
  P_TD67_010_P_D67_SHEDS       4.80       0.00       0.00       1.02       3.76        0.78    31.58   0.784
  P_TD67_020_P_TD67_010_SHEDS       4.80       0.00       0.00       1.03       3.75        0.15     6.35   0.782
  P_TD67_DCA_P_TD67_020_SHEDS       4.80       0.00       0.00       1.29       3.50        0.08     3.41   0.730
  
  
  ******************
  Node Depth Summary
  ******************
  
  ---------------------------------------------------------------------
                                 Average  Maximum  Maximum  Time of Max
                                   Depth    Depth      HGL   Occurrence
  Node                 Type         Feet     Feet     Feet  days hr:min
  ---------------------------------------------------------------------
  ID66-000             JUNCTION    22.10    27.90    -0.86     0  12:01
  ID66-002             JUNCTION    22.36    28.19    -0.86     0  12:01
  D68_McKean_10.E_1    JUNCTION     0.01     0.10     6.45     0  11:52
  D68_McKean_8_1       JUNCTION     3.40     5.70     5.37     0  12:05
  D68_McKean_11_19     JUNCTION     0.00     0.00     8.71     0  00:00
  D68_McKean_Trunk_40  JUNCTION     5.23     7.97     5.32     0  12:05
  D68_McKean_Trunk_55  JUNCTION     4.67     7.31     5.30     0  12:20
  D68_McKean_3_10      JUNCTION     3.61     5.95     5.26     0  14:55
  D68_McKean_5_1       JUNCTION     2.58     4.36     5.25     0  15:07
  D68_McKean_10_10     JUNCTION     0.49     0.97     5.38     0  12:13
  D68_McKean_Trunk_37  JUNCTION     5.40     8.15     5.31     0  12:05
  D68_McKean_9_7       JUNCTION     0.81     1.83     5.81     0  12:00
  D68_McKean_Trunk_28  JUNCTION     5.71     8.44     5.26     0  12:30
  D68_McKean_7_4       JUNCTION     2.05     3.79     5.49     0  12:05
  D68_McKean_2_4       JUNCTION     5.11     8.03     5.51     0  13:44
  D68_McKean_Trunk_25  JUNCTION     5.96     8.72     5.28     0  15:16
  D68_McKean_09.A_1    JUNCTION     1.07     2.16     5.65     0  12:00
  D68_McKean_4_4       JUNCTION     2.83     4.75     5.25     0  15:07
  D68_McKean_3_1       JUNCTION     4.92     7.61     5.29     0  14:59
  D68_McKean_03.A_1    JUNCTION     4.26     6.84     5.28     0  14:54
  D68_McKean_9_4       JUNCTION     1.46     2.81     5.75     0  12:05
  D68_McKean_Trunk_13  JUNCTION     6.65     9.45     5.30     0  13:44
  D68_McKean_Trunk_52  JUNCTION     5.03     7.81     5.39     0  12:05
  D68_McKean_9_16      JUNCTION     0.21     1.22     9.12     0  12:00
  D68_McKean_Trunk_46  JUNCTION     5.03     7.74     5.31     0  12:05
  D68_McKean_3_4       JUNCTION     4.46     7.02     5.25     0  14:54
  D68_McKean_10_16     JUNCTION     0.12     0.64     6.00     0  11:53
  D68_McKean_2_1       JUNCTION     5.51     8.35     5.38     0  13:49
  D68_McKean_10.D_1    JUNCTION     0.08     0.61     6.00     0  11:51
  D68_McKean_09.B_1    JUNCTION     0.21     1.19     7.64     0  12:00
  D67_TrunkC_16        JUNCTION     2.42     5.31     0.50     0  12:01
  D68_McKean_2_7       JUNCTION     4.62     7.61     5.67     0  13:44
  D68_McKean_Trunk_10  JUNCTION     6.79     9.58     5.28     0  13:47
  D68_McKean_Trunk_34  JUNCTION     5.70     8.43     5.27     0  12:20
  D68_McKean_6_4       JUNCTION     1.52     4.49     7.22     0  11:57
  D68_McKean_Trunk_19  JUNCTION     6.39     9.19     5.31     0  13:44
  D68_McKean_4_7       JUNCTION     2.64     4.50     5.25     0  15:06
  D68_McKean_9_13      JUNCTION     0.19     1.09     6.59     0  12:00
  D68_McKean_10_7      JUNCTION     0.53     1.02     5.37     0  12:13
  D68_McKean_10_4      JUNCTION     1.08     1.92     5.33     0  12:21
  D68_McKean_6_1       JUNCTION     3.56     6.17     5.59     0  11:58
  D68_McKean_3_7       JUNCTION     3.89     6.32     5.26     0  15:03
  D68_McKean_7_7       JUNCTION     1.67     3.39     5.69     0  12:05
  D68_McKean_03.C_4    JUNCTION     2.96     5.03     5.25     0  15:00
  D68_McKean_03.C_1    JUNCTION     3.77     6.21     5.29     0  14:55
  D68_McKean_10_22     JUNCTION     0.07     0.49     6.45     0  11:54
  D68_McKean_09.A_4    JUNCTION     0.20     1.16     6.66     0  12:00
  D68_McKean_4_1       JUNCTION     3.81     6.22     5.28     0  15:23
  D68_McKean_9_1       JUNCTION     1.92    10.83    12.68     0  12:03
  D68_McKean_10_19     JUNCTION     0.10     0.55     6.45     0  11:56
  D67_24_10            JUNCTION     0.67     1.20     4.99     0  12:15
  D68_McKean_Trunk_16  JUNCTION     6.38     9.20     5.32     0  13:44
  D68_McKean_03.A_4    JUNCTION     2.83     4.81     5.25     0  15:05
  D68_McKean_10.A_1    JUNCTION     1.00     2.08     5.50     0  12:21
  D68_McKean_Trunk_7   JUNCTION     7.03     9.81     5.28     0  13:46
  D68_McKean_1_1       JUNCTION     5.06     8.17     5.84     0  12:21
  D68_McKean_2_10      JUNCTION     4.40     7.39     5.70     0  13:44
  D68_McKean_Trunk_49  JUNCTION     5.03     7.75     5.32     0  12:20
  D68_McKean_10_1      JUNCTION     1.53     2.74     5.34     0  12:20
  D68_McKean_7_1       JUNCTION     2.43     4.27     5.34     0  12:05
  D68_McKean_9_10      JUNCTION     0.21     1.25     6.37     0  12:00
  D68_McKean_Trunk_22  JUNCTION     5.97     8.71     5.25     0  14:59
  D68_McKean_10_13     JUNCTION     0.18     0.77     5.76     0  11:56
  D68_McKean_03.C_7    JUNCTION     1.66     2.98     5.25     0  15:04
  D68_McKean_Trunk_43  JUNCTION     5.21     7.94     5.31     0  12:05
  D67_Trunk_43         JUNCTION     2.45     5.39     0.55     0  12:00
  D67_Trunk_67         JUNCTION     0.47     1.78    -0.01     0  12:00
  D67_18.B_1           JUNCTION     0.22     2.78     1.88     0  11:59
  P_D67                JUNCTION     4.12     6.78    -0.22     0  12:00
  D67_18.A_4           JUNCTION     0.95     3.92     1.17     0  11:59
  D67_Trunk_91         JUNCTION     0.38     2.14     2.67     0  11:56
  D67_26.B_4           JUNCTION     0.09     0.51     5.60     0  12:00
  D67_31_7             JUNCTION     0.02     0.12     5.87     0  11:46
  D67_Trunk_10         JUNCTION     4.08     6.79    -0.06     0  12:01
  D67_18.D_1           JUNCTION     0.13     2.23     1.97     0  12:00
  D67_2_1              JUNCTION     2.41     4.88    -0.08     0  12:01
  D67_32_4             JUNCTION     0.19     1.04     5.64     0  12:00
  D67_20.A_4           JUNCTION     0.19     2.09     2.75     0  12:00
  D67_32_10            JUNCTION     0.09     0.74     6.54     0  12:00
  D67_Trunk_80         JUNCTION     0.52     2.29     2.65     0  12:00
  D67_18.B_4           JUNCTION     0.18     2.92     3.66     0  11:59
  D67_29.E_4           JUNCTION     0.24     1.36     9.13     0  12:00
  D67_29.C_10          JUNCTION     0.26     1.38     8.92     0  12:00
  D67_9_4              JUNCTION     0.92     8.51     6.01     0  11:47
  D67_Trunk_86         JUNCTION     0.40     2.14     2.67     0  12:00
  D67_1_1              JUNCTION     0.07     0.38     1.58     0  11:52
  D67_13_4             JUNCTION     0.30     2.38     1.43     0  12:00
  D67_Trunk_31         JUNCTION     2.82     5.69     0.35     0  12:00
  D67_Trunk_82         JUNCTION     0.55     2.32     2.70     0  12:01
  D67_28_1             JUNCTION     0.07     0.36     6.17     0  12:00
  D67_26_4             JUNCTION     0.22     1.22     3.22     0  12:00
  D67_18_25            JUNCTION     0.17     2.44     2.75     0  12:00
  D67_21_4             JUNCTION     0.19     0.90     1.95     0  12:00
  D67_23_7             JUNCTION     0.20     1.17     3.07     0  11:56
  D67_17_10            JUNCTION     0.35     2.73     0.87     0  11:59
  D67_21_7             JUNCTION     0.23     1.24     2.95     0  11:59
  D67_26.A_1           JUNCTION     0.23     1.27     4.60     0  12:00
  D67_Trunk_97         JUNCTION     0.33     1.88     2.93     0  11:59
  D67_18.A_10          JUNCTION     0.17     2.27     2.94     0  11:56
  D67_12_1             JUNCTION     1.75     4.44     0.44     0  11:59
  D67_18_40            JUNCTION     0.11     0.59     3.23     0  12:00
  D67_17.B_4           JUNCTION     0.21     7.34     5.83     0  11:53
  D67_20.A_10          JUNCTION     0.14     0.77     3.39     0  12:00
  D67_17.B_7           JUNCTION     0.21     7.31     5.83     0  11:53
  D67_Trunk_106        JUNCTION     0.22     1.61     3.37     0  11:59
  D67_Trunk_49         JUNCTION     2.30     5.28     0.64     0  12:00
  D67_19.A_4           JUNCTION     0.30     1.63     5.61     0  12:00
  D67_17_13            JUNCTION     0.29     2.62     0.93     0  12:00
  D67_29.E_2           JUNCTION     0.16     0.84     6.97     0  12:00
  D67_30_1             JUNCTION     0.11     0.55     4.67     0  12:00
  D67_19_13            JUNCTION     0.32     4.83     5.96     0  11:59
  D67_31_4             JUNCTION     0.02     0.13     5.82     0  11:47
  D67_19_1             JUNCTION     0.29     1.56     0.64     0  12:00
  D67_17.A_1           JUNCTION     0.46     3.49     1.46     0  11:51
  D67_30_19            JUNCTION     0.11     0.96     7.27     0  11:58
  D67_19.A_1           JUNCTION     0.23     4.20     5.60     0  11:59
  D67_24_1             JUNCTION     0.27     0.62     2.82     0  12:15
  D67_20_1             JUNCTION     0.14     0.71    -0.17     0  12:00
  D67_14_1             JUNCTION     0.61     3.30     1.08     0  11:59
  D67_29_1             JUNCTION     0.14     0.89     5.45     0  12:00
  D67_26_13            JUNCTION     0.16     1.19     4.59     0  12:00
  D67_Trunk_115        JUNCTION     0.20     1.08     4.49     0  11:53
  D67_30_13            JUNCTION     0.28     1.87     7.25     0  12:00
  D67_Trunk_34         JUNCTION     2.82     5.74     0.41     0  12:00
  D67_20.A_1           JUNCTION     0.25     2.48     2.68     0  12:00
  D67_19.C_4           JUNCTION     0.10     0.71     5.05     0  12:00
  D67_26_10            JUNCTION     0.22     1.26     4.59     0  12:00
  D67_10_1             JUNCTION     0.79     9.47     8.47     0  12:01
  D67_18.A_7           JUNCTION     0.29     3.30     2.06     0  12:01
  D67_Trunk_22         JUNCTION     2.84     5.67     0.31     0  12:01
  D67_24_7             JUNCTION     0.68     1.24     4.14     0  12:15
  D67_21_10            JUNCTION     0.13     1.11     2.95     0  11:58
  D67_17.B_13          JUNCTION     0.23     1.33     3.33     0  11:53
  D67_13.A_4           JUNCTION     0.25     2.43     1.88     0  11:55
  D67_13.A_1           JUNCTION     0.18     2.19     1.48     0  12:00
  D67_20.B_1           JUNCTION     0.23     2.19     2.96     0  12:00
  D67_26.A_4           JUNCTION     0.10     0.53     5.08     0  11:58
  D67_26_1             JUNCTION     0.08     0.38     2.35     0  12:00
  D67_22_1             JUNCTION     0.03     0.15     1.20     0  12:00
  D67_3_1              JUNCTION     3.58     6.27    -0.08     0  12:01
  D67_31_1             JUNCTION     0.03     0.13     5.74     0  11:49
  D67_12_4             JUNCTION     0.47     3.04     1.04     0  11:59
  D67_30.D_7           JUNCTION     0.25     1.58     8.09     0  11:53
  D67_26_7             JUNCTION     0.24     1.36     4.16     0  12:00
  D67_23_10            JUNCTION     0.18     1.14     3.39     0  11:58
  D67_23_1             JUNCTION     0.12     0.97     2.65     0  11:58
  D67_19_4             JUNCTION     0.52     4.98     5.33     0  11:59
  D67_Trunk_19         JUNCTION     2.83     5.69     0.33     0  12:01
  D67_18.A_1           JUNCTION     0.95     3.92     1.16     0  11:59
  D67_30.C_1           JUNCTION     0.22     1.14     8.24     0  12:00
  D67_Trunk_7          JUNCTION     4.18     6.87    -0.09     0  12:01
  D67_20_16            JUNCTION     0.13     1.74     2.94     0  12:00
  D67_32_7             JUNCTION     0.24     1.36     6.53     0  12:00
  D67_17.B_1           JUNCTION     0.21     6.45     4.88     0  11:54
  D67_33_10            JUNCTION     0.10     0.51     7.84     0  12:00
  D67_Trunk_130        JUNCTION     0.11     0.55     5.80     0  11:57
  D67_17_16            JUNCTION     0.14     7.81     6.81     0  11:55
  D67_17.A_4           JUNCTION     0.44     2.83     0.85     0  11:59
  D67_20_7             JUNCTION     0.30     2.58     2.80     0  12:00
  D67_30.D_4           JUNCTION     0.14     0.78     6.91     0  12:00
  D67_23_16            JUNCTION     0.12     0.70     3.90     0  12:00
  D67_Trunk_127        JUNCTION     0.14     0.72     5.20     0  11:59
  D67_29.C_4           JUNCTION     0.16     0.88     6.73     0  12:00
  D67_18_4             JUNCTION     1.39     4.50     1.14     0  11:59
  D67_29.C_7           JUNCTION     0.12     0.64     6.53     0  12:00
  D67_Trunk_55         JUNCTION     2.29     5.31     0.71     0  11:59
  D67_23_19            JUNCTION     0.08     0.48     3.93     0  12:00
  D67_19_10            JUNCTION     0.35     4.89     5.96     0  11:59
  D67_18_7             JUNCTION     1.06     4.19     1.31     0  11:59
  D67_17_19            JUNCTION     0.15     1.93     1.02     0  12:00
  D68_McKean_10.C_1    JUNCTION     0.40     0.90     5.40     0  12:13
  D67_25_4             JUNCTION     0.19     0.94     3.04     0  11:55
  D67_30_4             JUNCTION     0.27     1.70     5.95     0  12:00
  D67_Trunk_16         JUNCTION     2.83     5.65     0.29     0  12:01
  D67_18_1             JUNCTION     1.81     4.73     0.68     0  12:00
  D67_Trunk_112        JUNCTION     0.21     1.10     4.49     0  11:57
  D67_Trunk_4          JUNCTION     4.19     6.87    -0.10     0  12:01
  D67_34.A_4           JUNCTION     0.00     0.00    11.52     0  00:00
  D67_18_28            JUNCTION     0.16     2.81     3.13     0  12:00
  D67_32.E_1           JUNCTION     0.17     1.01    10.27     0  12:00
  D67_21_1             JUNCTION     0.12     0.85     1.81     0  12:00
  D67_Trunk_70         JUNCTION     0.47     1.76     0.51     0  11:59
  D67_20.B_4           JUNCTION     0.23     1.34     4.69     0  12:00
  D67_Trunk_103        JUNCTION     0.30     1.70     3.37     0  11:58
  D67_11_1             JUNCTION     1.33     8.41     5.26     0  12:02
  D67_Trunk_88         JUNCTION     0.45     2.14     2.67     0  11:57
  D67_26_19            JUNCTION     0.13     0.90     4.61     0  11:59
  D67_17.B_10          JUNCTION     0.22     2.32     0.88     0  12:00
  D67_18_10            JUNCTION     0.60     3.60     1.43     0  11:59
  D67_9_1              JUNCTION     1.62     4.24     0.46     0  11:59
  D67_Trunk_37         JUNCTION     2.62     5.53     0.47     0  12:00
  D67_21.B_1           JUNCTION     0.14     0.78     4.74     0  12:00
  D67_18.A_13          JUNCTION     0.10     2.21     2.95     0  11:56
  D67_Trunk_109        JUNCTION     0.25     1.23     3.71     0  11:58
  D67_Trunk_118        JUNCTION     0.18     1.06     4.50     0  11:56
  D67_29_10            JUNCTION     0.07     0.69     6.54     0  12:00
  D67_33_4             JUNCTION     0.07     0.38     6.65     0  11:47
  D67_23_4             JUNCTION     0.13     0.96     2.66     0  11:58
  D67_26.B_1           JUNCTION     0.10     0.63     4.63     0  12:00
  D67_21_13            JUNCTION     0.12     1.08     2.96     0  11:57
  D67_20.A_7           JUNCTION     0.19     1.34     2.97     0  12:00
  D67_26.A_7           JUNCTION     0.04     0.42     5.08     0  11:53
  D67_19_7             JUNCTION     0.36     4.84     5.88     0  11:59
  D67_Trunk_100        JUNCTION     0.31     1.78     2.90     0  11:58
  D67_13_1             JUNCTION     0.89     3.69     1.12     0  11:59
  D67_Trunk_46         JUNCTION     2.37     5.34     0.61     0  12:00
  D67_27_4             JUNCTION     0.21     1.25     7.13     0  12:00
  D67_17_7             JUNCTION     0.76     4.41     1.94     0  11:56
  D67_25_7             JUNCTION     0.16     0.90     3.60     0  11:57
  D67_17_4             JUNCTION     1.06     4.35     1.45     0  11:53
  D67_29_7             JUNCTION     0.15     0.79     6.54     0  12:00
  D67_30.D_10          JUNCTION     0.12     0.66     8.88     0  12:00
  D67_Trunk_58         JUNCTION     2.28     5.35     0.75     0  11:59
  D67_18_37            JUNCTION     0.14     0.74     2.22     0  12:00
  D67_20_10            JUNCTION     0.29     2.49     2.94     0  12:00
  D67_Trunk_28         JUNCTION     2.83     5.67     0.31     0  12:01
  D67_18_34            JUNCTION     0.15     1.66     2.17     0  12:00
  D67_33_7             JUNCTION     0.07     0.32     6.66     0  12:00
  D67_Trunk_13         JUNCTION     3.81     6.63     0.07     0  12:01
  D67_29_4             JUNCTION     0.24     1.24     6.35     0  12:00
  D67_Trunk_41         JUNCTION     2.46     5.37     0.54     0  12:00
  D67_30_16            JUNCTION     0.21     1.80     7.25     0  12:00
  D67_32_1             JUNCTION     0.09     0.47     5.06     0  12:00
  D67_17.A_7           JUNCTION     0.24     1.35     2.21     0  12:00
  D67_Trunk_64         JUNCTION     0.54     2.33     0.38     0  12:00
  D67_Trunk_124        JUNCTION     0.15     0.90     4.48     0  11:55
  D67_18_16            JUNCTION     0.24     2.38     1.95     0  11:59
  D67_18_31            JUNCTION     0.15     1.71     2.20     0  12:00
  D67_29.C_1           JUNCTION     0.13     0.68     6.52     0  12:08
  D67_Trunk_52         JUNCTION     2.29     5.28     0.66     0  12:00
  D67_30_10            JUNCTION     0.46     2.44     7.00     0  12:00
  D67_4_1              JUNCTION     0.04     1.08    -0.07     0  12:01
  D67_18.A_16          JUNCTION     0.09     2.66     3.41     0  11:56
  D67_Trunk_74         JUNCTION     0.53     1.91     0.72     0  11:59
  D67_27_1             JUNCTION     0.15     0.83     3.75     0  12:00
  D67_Trunk_25         JUNCTION     2.83     5.67     0.31     0  12:00
  D67_20_13            JUNCTION     0.22     2.42     2.94     0  12:00
  D67_19.C_1           JUNCTION     0.17     4.01     5.89     0  11:59
  D67_Trunk_61         JUNCTION     1.11     3.62     0.67     0  12:01
  D67_20_4             JUNCTION     0.45     2.90     2.64     0  12:00
  D67_17_22            JUNCTION     0.14     0.79     5.41     0  11:53
  D67_25_1             JUNCTION     0.11     0.68     2.58     0  12:00
  D67_23_13            JUNCTION     0.14     0.93     3.43     0  11:57
  D67_16_1             JUNCTION     1.17     3.79     0.62     0  12:00
  D67_25_10            JUNCTION     0.12     0.63     4.33     0  12:00
  D67_19.B_1           JUNCTION     0.12     3.55     6.15     0  11:59
  D67_Trunk_121        JUNCTION     0.17     1.06     4.52     0  11:54
  D67_Trunk_94         JUNCTION     0.36     2.02     2.69     0  11:55
  D67_11.A_4           JUNCTION     0.43     7.07     5.26     0  12:00
  D67_15_1             JUNCTION     1.33     4.02     0.62     0  12:00
  D67_Trunk_1          JUNCTION     4.20     6.88    -0.11     0  12:01
  D67_Trunk_76         JUNCTION     0.55     2.48     2.16     0  11:59
  D67_17_1             JUNCTION     1.31     5.63     2.30     0  11:54
  D67_Trunk_133        JUNCTION     0.04     0.45     5.81     0  11:54
  D67_24_4             JUNCTION     0.78     1.34     3.64     0  15:18
  D67_33_1             JUNCTION     0.07     0.33     6.58     0  12:00
  D67_30.D_1           JUNCTION     0.18     1.28     7.20     0  11:59
  OD67-000             JUNCTION     3.97     5.74    -1.38     0  12:00
  OD67-002             JUNCTION     4.14     5.91    -1.44     0  12:00
  P_OD67_000           JUNCTION     3.97     5.80    -1.32     0  12:00
  P_OD67_002           JUNCTION     4.18     5.92    -1.49     0  11:55
  P_TD67_010           JUNCTION     3.74     6.49     0.03     0  12:00
  P_TD67_020           JUNCTION     3.24     6.06     0.15     0  12:00
  P_TD67_DCA           JUNCTION     2.82     5.66     0.30     0  12:01
  D67_TrunkC_10        JUNCTION     2.69     5.56     0.38     0  12:00
  D67_TrunkC_13        JUNCTION     2.56     5.45     0.44     0  12:00
  D68_SnyderAve_20.A_4 JUNCTION     3.33     5.29     4.45     1  00:00
  D68_SnyderAve_20.A_7 JUNCTION     4.37     6.50     4.49     0  23:56
  D68_SnyderAve_18_4   JUNCTION     2.69     4.39     4.45     0  23:59
  D68_SnyderAve_20_7   JUNCTION     3.72     5.76     4.45     1  00:00
  D68_SnyderAve_22.A_13 JUNCTION     3.66     5.88     4.68     0  12:19
  D68_SnyderAve_5_16   JUNCTION     6.57     8.23     5.26     0  08:15
  D68_SnyderAve_5_4    JUNCTION     6.40     8.06     5.26     0  08:15
  D68_SnyderAve_9_7    JUNCTION     7.99     8.99     7.00     1  00:00
  D68_SnyderAve_22.B_1 JUNCTION     3.28     5.26     4.50     0  23:42
  D68_SnyderAve_3_13   JUNCTION     6.35     7.58     4.88     1  00:00
  D68_SnyderAve_Trunk_88 JUNCTION     5.44     7.59     4.49     0  23:40
  D68_SnyderAve_19.A_4 JUNCTION     3.24     5.08     4.45     1  00:00
  D68_SnyderAve_3_22   JUNCTION     5.68     6.92     4.92     0  11:58
  D68_SnyderAve_20_1   JUNCTION     2.08     3.56     4.45     0  23:59
  D68_SnyderAve_22_37  JUNCTION     4.25     6.32     4.46     0  23:57
  D68_SnyderAve_20.B_4 JUNCTION     0.10     0.53     9.00     0  12:00
  D68_SnyderAve_15_4   JUNCTION     4.46     5.52     3.56     0  23:59
  D68_SnyderAve_21_1   JUNCTION     2.48     4.15     4.48     0  23:52
  D68_SnyderAve_22.B_10 JUNCTION     3.13     5.02     4.46     0  23:58
  D68_SnyderAve_5_25   JUNCTION     6.58     8.25     5.27     0  11:48
  D68_SnyderAve_20.B_7 JUNCTION     3.61     5.65     4.49     0  23:51
  D68_SnyderAve_20.B_1 JUNCTION     1.12     1.97     4.46     0  23:55
  D68_SnyderAve_Trunk_70 JUNCTION     4.64     6.73     4.45     0  23:53
  D68_SnyderAve_12.B_7 JUNCTION     2.56     3.76     3.47     1  00:00
  D68_SnyderAve_22.A_1 JUNCTION     3.95     6.03     4.49     0  23:48
  D68_SnyderAve_22_13  JUNCTION     4.21     6.27     4.46     0  23:57
  D68_SnyderAve_12_10  JUNCTION     4.40     5.79     3.47     0  23:53
  D68_SnyderAve_5_31   JUNCTION     6.91     8.60     5.29     0  11:48
  D68_SnyderAve_23_4   JUNCTION     3.43     5.41     4.49     0  23:32
  D68_SnyderAve_Trunk_100 JUNCTION     5.62     7.73     4.45     0  23:57
  D68_SnyderAve_17_4   JUNCTION     4.88     7.01     4.48     0  23:37
  D68_SnyderAve_9_1    JUNCTION     7.52     8.52     7.00     1  00:00
  D68_SnyderAve_18_1   JUNCTION     2.71     4.40     4.45     1  00:00
  D68_SnyderAve_Trunk_151 JUNCTION     4.63     6.75     4.48     0  23:58
  D68_SnyderAve_12.B_10 JUNCTION     4.25     5.68     3.51     0  23:59
  D68_SnyderAve_23.A_4 JUNCTION     2.36     3.99     4.49     0  23:34
  D68_SnyderAve_3_4    JUNCTION     6.17     7.39     4.88     1  00:00
  D68_SnyderAve_22_22  JUNCTION     4.26     6.36     4.49     0  23:58
  D68_SnyderAve_12_4   JUNCTION     5.15     6.55     3.47     0  23:36
  D68_SnyderAve_22.A_4 JUNCTION     3.94     6.07     4.55     0  12:19
  D68_SnyderAve_12.A_7 JUNCTION     4.67     6.12     3.52     0  22:57
  D68_SnyderAve_23_1   JUNCTION     2.58     4.30     4.50     0  23:57
  D68_SnyderAve_12.A_4 JUNCTION     1.84     2.80     3.47     1  00:00
  D68_SnyderAve_12_7   JUNCTION     4.45     5.84     3.47     0  23:36
  D68_SnyderAve_Trunk_49 JUNCTION     4.77     6.87     4.45     1  00:00
  D68_SnyderAve_12.B_1 JUNCTION     3.37     4.71     3.47     0  23:52
  D68_SnyderAve_22.B_4 JUNCTION     3.26     5.22     4.49     0  23:58
  D68_SnyderAve_20.A_1 JUNCTION     2.15     3.65     4.45     1  00:00
  D68_SnyderAve_22_25  JUNCTION     4.20     6.29     4.49     0  23:40
  D68_SnyderAve_20_10  JUNCTION     3.90     5.95     4.45     0  23:56
  D68_SnyderAve_20_4   JUNCTION     4.46     6.56     4.45     0  23:58
  D68_SnyderAve_22.A_7 JUNCTION     3.92     6.20     4.70     0  12:19
  D68_SnyderAve_Trunk_10 JUNCTION     5.44     7.56     4.45     0  23:55
  D68_SnyderAve_23_7   JUNCTION     1.55     2.69     4.46     0  23:49
  D68_SnyderAve_12.B_4 JUNCTION     4.39     5.82     3.51     0  23:54
  D68_SnyderAve_12.A_1 JUNCTION     4.91     6.36     3.51     0  23:33
  D68_SnyderAve_15_1   JUNCTION     2.63     3.55     3.53     1  00:00
  D66_11_4             JUNCTION     6.40    10.80    12.81     0  15:38
  D66_8.C_1            JUNCTION     0.30     4.73     6.03     0  11:59
  D66_13_7             JUNCTION     7.37    10.43    13.55     0  12:03
  D66_Trunk_10         JUNCTION     3.79     5.43    -1.37     0  11:48
  D66_8_1              JUNCTION     0.41     4.92     6.04     0  11:59
  OD66-000             JUNCTION     4.15     5.86    -1.46     0  11:48
  D66_6_1              JUNCTION     6.35     8.47     6.92     0  11:02
  D66_6_4              JUNCTION     6.51     8.70     6.98     0  11:46
  D66_3_1              JUNCTION     0.58     1.85    -0.45     0  11:57
  D66_6_7              JUNCTION     7.39     9.64     7.03     0  11:56
  D66_6.A_4            JUNCTION     6.65     8.89     7.03     0  11:46
  D66                  JUNCTION     5.41     7.44    -1.45     0  11:48
  D66_8.C_4            JUNCTION     0.17     1.03     5.64     0  11:59
  D67_11_4             JUNCTION     1.08     8.11     5.26     0  11:57
  D66_8_4              JUNCTION     0.32     4.82     6.02     0  11:59
  D67_18_13            JUNCTION     0.28     2.73     1.85     0  11:59
  D66_Trunk_67         JUNCTION     3.71     5.36    -1.35     0  11:48
  D66_6.A_7            JUNCTION     6.55     8.78     7.03     0  11:56
  D67_18_19            JUNCTION     0.24     2.39     1.97     0  12:00
  D66_6.B_1            JUNCTION     5.93     8.17     7.07     0  11:46
  D66_Trunk_88         JUNCTION     3.42     5.06    -1.29     0  11:48
  D67_18_22            JUNCTION     0.20     1.84     2.08     0  12:00
  D66_11_16            JUNCTION     6.12    10.51    12.81     0  15:37
  D66_13_10            JUNCTION     7.68    10.71    13.51     0  10:31
  D66_Trunk_109        JUNCTION     3.38     5.02    -1.28     0  11:48
  D66_6_13             JUNCTION     6.83     9.06     7.02     0  11:58
  D66_6.B_4            JUNCTION     2.79     4.43     7.30     0  11:46
  D66_2_4              JUNCTION     1.77     2.93    -1.27     0  11:48
  D66_8.B_4            JUNCTION     0.34     4.89     6.09     0  11:59
  D66_Trunk_133        JUNCTION     3.46     5.10    -1.30     0  11:48
  D66_Trunk_139        JUNCTION     3.93     5.59    -1.41     0  11:48
  D66_1_1              JUNCTION     0.44     9.83     7.98     0  11:49
  D66_Trunk_157        JUNCTION     3.62     5.26    -1.34     0  11:48
  D66_Trunk_163        JUNCTION     3.38     5.02    -1.28     0  11:48
  D66_8_13             JUNCTION     0.92     5.47     6.08     0  11:59
  D66_6.B_7            JUNCTION     2.49     4.07     7.34     0  11:46
  D66_6.B_10           JUNCTION     6.00     8.21     7.03     0  11:46
  CD66-000             JUNCTION     6.32     9.77    -0.24     0  15:04
  CD67-000             JUNCTION     5.34     8.39    -0.22     0  12:02
  CD67-002             JUNCTION     5.92     9.08    -0.19     0  12:02
  CD67-006             JUNCTION     7.62    11.06    -0.39     0  12:02
  CD67-008             JUNCTION     8.49    12.04    -0.53     0  12:00
  CD67-010             JUNCTION     9.39    13.09    -0.64     0  12:01
  CD67-012             JUNCTION    10.54    14.43    -0.78     0  12:01
  TD54-102             JUNCTION     0.02     0.02   -10.95     0  00:00
  TD54-140             JUNCTION     0.00     0.00     1.93     0  00:00
  TD54-204             JUNCTION     0.01     0.01    13.51     0  00:00
  TD54-224             JUNCTION     0.01     0.01    19.61     0  00:00
  TD54-502             JUNCTION     0.03     0.03    -9.55     0  00:00
  TD54-620             JUNCTION     0.02     0.02     5.27     0  00:00
  TD58-112             JUNCTION     0.01     0.01    12.21     0  00:00
  TD61-104             JUNCTION     0.01     0.01    -2.36     0  00:00
  TD62-102             JUNCTION     0.00     0.00    -4.04     0  00:00
  TD63-105             JUNCTION     0.01     0.01    -2.67     0  00:00
  TD63-109             JUNCTION     0.03     0.03    -0.72     0  00:00
  TD63-116             JUNCTION     0.03     0.03     2.02     0  00:00
  TD63-134             JUNCTION     0.02     0.02     9.81     0  00:00
  Relief_01            JUNCTION     2.82     5.66     0.31     0  12:00
  OD67-999             OUTFALL      5.93     5.93    -1.52     0  00:00
  OD67-998             OUTFALL      5.93     5.93    -1.52     0  00:00
  OD66_999             OUTFALL      7.72     7.72    -1.52     0  00:00
  
  
  *******************
  Node Inflow Summary
  *******************
  
  -------------------------------------------------------------------------------------
                                  Maximum  Maximum                  Lateral       Total
                                  Lateral    Total  Time of Max      Inflow      Inflow
                                   Inflow   Inflow   Occurrence      Volume      Volume
  Node                 Type           CFS      CFS  days hr:min    10^6 gal    10^6 gal
  -------------------------------------------------------------------------------------
  ID66-000             JUNCTION      0.00     5.23     0  06:40       0.000       0.685
  ID66-002             JUNCTION      0.00     6.38     0  06:32       0.000       0.943
  D68_McKean_10.E_1    JUNCTION      0.04     0.04     0  11:52       0.001       0.001
  D68_McKean_8_1       JUNCTION      4.69     4.69     0  12:00       0.116       0.116
  D68_McKean_11_19     JUNCTION      1.05     1.05     0  12:00       0.025       0.025
  D68_McKean_Trunk_40  JUNCTION      2.23    64.36     0  11:51       0.049       1.609
  D68_McKean_Trunk_55  JUNCTION      6.13    18.91     0  11:47       0.146       0.316
  D68_McKean_3_10      JUNCTION      2.25     7.28     0  11:48       0.055       0.078
  D68_McKean_5_1       JUNCTION      8.89    12.76     0  12:12       0.199       0.337
  D68_McKean_10_10     JUNCTION      0.02     2.84     0  11:57       0.000       0.076
  D68_McKean_Trunk_37  JUNCTION      6.03    78.38     0  11:51       0.129       1.548
  D68_McKean_9_7       JUNCTION      1.71    15.47     0  12:00       0.038       0.360
  D68_McKean_Trunk_28  JUNCTION      2.65    84.22     0  11:58       0.064       1.531
  D68_McKean_7_4       JUNCTION      0.18     4.68     0  11:51       0.005       1.147
  D68_McKean_2_4       JUNCTION      2.98     9.62     0  11:59       0.076       0.239
  D68_McKean_Trunk_25  JUNCTION      0.07    62.87     0  11:58       0.002       1.081
  D68_McKean_09.A_1    JUNCTION      0.03    10.52     0  12:04       0.001       0.158
  D68_McKean_4_4       JUNCTION      3.54     8.94     0  12:09       0.085       0.224
  D68_McKean_3_1       JUNCTION      0.02    10.72     0  12:09       0.001       0.609
  D68_McKean_03.A_1    JUNCTION      0.01     5.95     0  12:15       0.000       0.286
  D68_McKean_9_4       JUNCTION      1.49    22.02     0  12:00       0.036       0.550
  D68_McKean_Trunk_13  JUNCTION      6.27    38.08     0  11:53       0.158       1.170
  D68_McKean_Trunk_52  JUNCTION      0.11    21.77     0  11:47       0.003       0.301
  D68_McKean_9_16      JUNCTION      5.80     5.80     0  12:00       0.139       0.139
  D68_McKean_Trunk_46  JUNCTION      1.72    49.36     0  11:51       0.043       0.779
  D68_McKean_3_4       JUNCTION      1.49    12.33     0  11:47       0.034       0.631
  D68_McKean_10_16     JUNCTION      0.72     2.00     0  11:52       0.018       0.050
  D68_McKean_2_1       JUNCTION      0.06     9.68     0  11:56       0.002       0.245
  D68_McKean_10.D_1    JUNCTION      0.00     0.20     0  11:46       0.000       0.000
  D68_McKean_09.B_1    JUNCTION      5.34     5.34     0  12:00       0.123       0.123
  D67_TrunkC_16        JUNCTION      8.01   114.81     0  11:59       0.199       3.445
  D68_McKean_2_7       JUNCTION      5.85     6.64     0  11:59       0.148       0.167
  D68_McKean_Trunk_10  JUNCTION      3.67    22.25     0  11:51       0.091       0.823
  D68_McKean_Trunk_34  JUNCTION      0.17    74.09     0  11:51       0.004       1.425
  D68_McKean_6_4       JUNCTION      9.63     9.63     0  12:00       0.218       0.218
  D68_McKean_Trunk_19  JUNCTION      0.00    45.08     0  11:52       0.000       1.057
  D68_McKean_4_7       JUNCTION      1.36     9.22     0  12:00       0.031       0.082
  D68_McKean_9_13      JUNCTION      0.31     6.10     0  12:00       0.007       0.146
  D68_McKean_10_7      JUNCTION      1.29     4.18     0  11:54       0.031       0.117
  D68_McKean_10_4      JUNCTION      0.83     5.00     0  11:58       0.021       0.138
  D68_McKean_6_1       JUNCTION      0.06    11.23     0  11:57       0.002       0.226
  D68_McKean_3_7       JUNCTION      2.19    11.31     0  11:47       0.053       0.380
[...]
  D68_SnyderAve_9_1       1.00   0.00  0.00  0.00  1.00  0.00  0.00  0.00     0.00   0.0002
  D68_SnyderAve_Trunk_10    1.00   0.00  0.00  0.00  1.00  0.00  0.00  0.00     0.00   0.0004
  D68_SnyderAve_Trunk_49    1.00   0.00  0.00  0.00  1.00  0.00  0.00  0.00     0.01   0.0001
  D68_SnyderAve_Trunk_70    1.00   0.00  0.00  0.00  1.00  0.00  0.00  0.00     0.02   0.0002
  D68_SnyderAve_Trunk_88   41.14   0.00  0.00  0.00  1.00  0.00  0.00  0.00     0.00   0.0007
  D68_SnyderAve_Trunk_151   11.88   0.00  0.00  0.00  1.00  0.00  0.00  0.00     0.00   0.0008
  D68_SnyderAve_20.A_1    1.00   0.00  0.00  0.00  1.00  0.00  0.00  0.00     0.15   0.0003
  D68_SnyderAve_20.A_4    1.00   0.00  0.00  0.00  1.00  0.00  0.00  0.00     0.06   0.0005
  D68_SnyderAve_20.A_7    3.00   0.00  0.00  0.00  1.00  0.00  0.00  0.00     0.03   0.0014
  D68_SnyderAve_20.B_1    1.00   0.00  0.00  0.00  0.84  0.16  0.00  0.00     0.25   0.0001
  D68_SnyderAve_20.B_4    1.00   0.00  0.00  0.00  0.58  0.42  0.00  0.00     0.60   0.0000
  D68_SnyderAve_20.B_7    4.68   0.00  0.00  0.00  1.00  0.00  0.00  0.00     0.09   0.0006
  D68_SnyderAve_20_1      1.00   0.00  0.00  0.00  1.00  0.00  0.00  0.00     0.08   0.0002
  D68_SnyderAve_20_4      1.00   0.00  0.00  0.00  1.00  0.00  0.00  0.00     0.02   0.0004
  D68_SnyderAve_20_7      7.89   0.00  0.00  0.00  1.00  0.00  0.00  0.00     0.02   0.0005
  D68_SnyderAve_20_10     1.00   0.00  0.00  0.00  1.00  0.00  0.00  0.00     0.03   0.0003
  D68_SnyderAve_21_1      1.00   0.00  0.00  0.00  0.89  0.01  0.00  0.10     0.71   0.0002
  D68_SnyderAve_22.A_1    5.76   0.00  0.00  0.00  1.00  0.00  0.00  0.00     0.05   0.0002
  D68_SnyderAve_22.A_4   54.84   0.00  0.00  0.00  0.89  0.10  0.00  0.00     0.16   0.0013
  D68_SnyderAve_22.A_7   53.96   0.00  0.00  0.00  0.89  0.11  0.00  0.00     0.15   0.0012
  D68_SnyderAve_22.A_10    1.00   0.00  0.00  0.00  1.00  0.00  0.00  0.00     0.16   0.0008
  D68_SnyderAve_22.A_13    3.54   0.00  0.00  0.00  0.89  0.11  0.00  0.00     0.19   0.0010
  D68_SnyderAve_22.B_1   15.32   0.00  0.00  0.00  0.80  0.00  0.00  0.20     0.13   0.0002
  D68_SnyderAve_22.B_4   10.62   0.00  0.00  0.00  1.00  0.00  0.00  0.00     0.15   0.0012
  D68_SnyderAve_22.B_10    1.93   0.00  0.00  0.00  1.00  0.00  0.00  0.00     0.13   0.0010
  D68_SnyderAve_12.A_1   39.24   0.00  0.00  0.00  1.00  0.00  0.00  0.00     0.00   0.0001
  D66_1_1                 1.00   0.00  0.00  0.00  1.00  0.00  0.00  0.00     0.20   0.0002
  D66_11_16               7.63   0.00  0.00  0.00  1.00  0.00  0.00  0.00     0.00   0.0001
  D66_3_1                 1.00   0.00  0.00  0.00  1.00  0.00  0.00  0.00     0.18   0.0003
  D66_13_7                1.57   0.00  0.00  0.00  1.00  0.00  0.00  0.00     0.00   0.0009
  D66_6.A_4               1.46   0.00  0.00  0.00  1.00  0.00  0.00  0.00     0.01   0.0010
  D66_6.A_7              12.00   0.00  0.00  0.00  1.00  0.00  0.00  0.00     0.01   0.0004
  D66_6.B_1              11.04   0.00  0.00  0.00  0.94  0.06  0.00  0.00     0.08   0.0004
  D66_6.B_4               1.00   0.00  0.00  0.00  1.00  0.00  0.00  0.00     0.08   0.0001
  D66_6.B_7               1.00   0.00  0.00  0.00  1.00  0.00  0.00  0.00     0.06   0.0004
  D66_6.B_10              1.41   0.00  0.00  0.00  0.96  0.00  0.00  0.04     0.06   0.0008
  D66_6_1                 1.04   0.00  0.00  0.00  1.00  0.00  0.00  0.00     0.00   0.0009
  D66_6_4                 1.00   0.00  0.00  0.00  1.00  0.00  0.00  0.00     0.02   0.0008
  D66_6_13                6.76   0.00  0.00  0.00  1.00  0.00  0.00  0.00     0.00   0.0002
  D66_8.B_4               3.25   0.00  0.00  0.00  0.99  0.00  0.00  0.01     0.01   0.0000
  D66_8.C_1               1.00   0.00  0.00  0.00  1.00  0.00  0.00  0.00     0.27   0.0001
  D66_8.C_4               1.00   0.00  0.00  0.00  1.00  0.00  0.00  0.00     0.49   0.0000
  D66_8_1                 1.00   0.00  0.00  0.00  1.00  0.00  0.00  0.00     0.02   0.0000
  D66_8_4                 5.19   0.00  0.00  0.00  1.00  0.00  0.00  0.00     0.27   0.0001
  D66_Trunk_10            1.00   0.00  0.00  0.00  1.00  0.00  0.00  0.00     0.12   0.0002
  OD66-000                1.00   0.00  0.00  0.00  1.00  0.00  0.00  0.00     0.00   0.0000
  D66_Trunk_67            1.52   0.00  0.00  0.00  1.00  0.00  0.00  0.00     0.06   0.0002
  D66_2_4                 4.68   0.00  0.00  0.00  1.00  0.00  0.00  0.00     0.00   0.0001
  D66_Trunk_88            3.12   0.00  0.00  0.00  1.00  0.00  0.00  0.00     0.10   0.0002
  D66_Trunk_109          15.33   0.00  0.00  0.00  1.00  0.00  0.00  0.00     0.00   0.0002
  D66_Trunk_133           1.00   0.00  0.00  0.00  1.00  0.00  0.00  0.00     0.10   0.0002
  D66_Trunk_139           1.00   0.00  0.00  0.00  0.79  0.00  0.00  0.21     0.32   0.0001
  D66_Trunk_157           1.05   0.00  0.00  0.00  1.00  0.00  0.00  0.00     0.10   0.0002
  D66_Trunk_163           1.00   0.00  0.00  0.00  1.00  0.00  0.00  0.00     0.06   0.0004
  1                       1.00   0.00  0.00  0.00  1.00  0.00  0.00  0.00     0.13   0.0008
  2                       1.00   0.00  0.00  0.00  1.00  0.00  0.00  0.00     0.13   0.0006
  
  
  *************************
  Conduit Surcharge Summary
  *************************
  
  ----------------------------------------------------------------------------
                                                           Hours        Hours 
                         --------- Hours Full --------   Above Full   Capacity
  Conduit                Both Ends  Upstream  Dnstream   Normal Flow   Limited
  ----------------------------------------------------------------------------
  D67_26.A_1                  0.01      0.01      0.01      0.54         0.01
  CD66-000                   17.31     17.31     17.31      0.01         0.01
  ID66-000                   17.90     17.90     17.90      0.01         0.01
  D68_McKean_1_1             15.83     15.83     15.83      0.12         0.12
  D68_McKean_03.A_1          12.85     12.85     12.86      0.01         0.01
  D68_McKean_03.A_4          12.21     12.21     12.21      0.01         0.01
  D68_McKean_03.C_1          12.97     12.97     12.97      0.01         0.01
  D68_McKean_03.C_4          12.30     12.30     12.30      0.01         0.01
  D68_McKean_03.C_7          11.95     11.95     11.95      0.01         0.01
  D68_McKean_4_1             12.43     12.43     12.43      0.01         0.01
  D68_McKean_4_4             12.22     12.22     12.22      0.01         0.01
  D68_McKean_4_7             12.17     12.17     12.17      0.01         0.01
  D68_McKean_5_1             12.11     12.11     12.11      0.01         0.01
  D68_McKean_6_1             12.33     12.33     12.33      0.01         0.01
  D68_McKean_2_1             14.16     14.16     14.16      0.01         0.01
  D68_McKean_6_4              2.27      2.27      2.34      0.01         0.01
  D68_McKean_7_1             12.09     12.09     12.09      0.01         0.01
  D68_McKean_7_4             12.06     12.06     12.06      0.01         0.01
  D68_McKean_7_7             11.93     11.93     11.93      0.01         0.01
  D68_McKean_8_1             12.27     12.27     12.27      0.01         0.01
  D68_McKean_9_1             11.91     11.91     11.91      0.01         0.01
  D68_McKean_2_4             13.46     13.46     13.46      0.01         0.01
  D68_McKean_2_7             12.77     12.77     12.77      0.01         0.01
  D68_McKean_2_10            12.58     12.58     12.58      0.01         0.01
  D68_McKean_Trunk_10        12.66     12.66     12.66      0.01         0.01
  D68_McKean_Trunk_13        12.54     12.54     12.54      0.01         0.01
  D68_McKean_Trunk_16        12.41     12.41     12.41      0.01         0.01
  D68_McKean_Trunk_19        12.41     12.41     12.41      0.01         6.76
  D68_McKean_Trunk_22        12.30     12.30     12.30      0.01         0.01
  D68_McKean_Trunk_25        12.30     12.30     12.30      0.01         2.97
  D68_McKean_Trunk_28        12.25     12.25     12.25      0.01         0.01
  D68_McKean_Trunk_34        12.25     12.25     12.25      0.01         0.15
  D68_McKean_Trunk_37        11.96     11.96     11.96      0.01         0.01
  D68_McKean_Trunk_40        11.93     11.93     11.93      0.01         0.01
  D68_McKean_Trunk_43        11.93     11.93     11.93      0.01         1.78
  D68_McKean_Trunk_46         8.55      8.55      8.59      0.01         0.01
  D68_McKean_Trunk_49         8.49      8.49      8.53      0.01         3.63
  D68_McKean_Trunk_52         8.37      8.37      8.39      0.01         4.02
  D68_McKean_3_1             13.93     13.93     13.93      0.01         0.01
  D68_McKean_3_4             13.10     13.10     13.10      0.01         0.01
  D68_McKean_3_7             12.48     12.48     12.48      0.01         0.01
  D68_McKean_3_10            12.36     12.36     12.36      0.01         0.01
  D67_11.A_4                  0.31      0.31      0.32      0.01         0.06
  D67_12_1                    1.34      1.34      1.39      0.01         0.01
  D67_12_4                    0.11      0.11      0.11      0.01         0.01
  D67_13_1                    0.18      0.18      0.18      0.01         0.01
  D67_30_10                   0.01      0.01      0.01      0.25         0.01
  D67_30.D_7                  0.01      0.01      0.01      0.23         0.01
  D67_13.A_1                  0.12      0.12      0.12      0.01         0.01
  D67_13.A_4                  0.11      0.11      0.11      0.13         0.05
  D67_14_1                    0.05      0.05      0.05      0.01         0.01
  D67_2_1                     0.85      0.85      0.85      0.01         0.01
  D67_15_1                   12.51     12.51     12.51      0.01         0.01
  D67_16_1                    0.93      0.93      0.94      0.01         0.01
  D67_17_1                    0.16      0.16      0.16      0.01         0.01
  D67_17_4                    0.20      0.20      0.20      0.01         0.01
  D67_17_7                    0.10      0.10      0.10      0.01         0.01
  D67_17_16                   0.01      0.01      0.01      0.01         0.01
  D67_Trunk_34                0.01      0.01      0.01      0.32         0.01
  D67_Trunk_43                0.15      0.15      0.15      0.01         0.05
  D67_Trunk_46                0.12      0.12      0.12      0.01         0.01
  D67_Trunk_49                0.10      0.10      0.10      0.01         0.01
  D67_Trunk_52                0.10      0.10      0.10      0.01         0.02
  D67_Trunk_55                0.41      0.41      0.41      0.05         0.15
  D67_Trunk_58                0.09      0.09      0.09      0.01         0.04
  D67_3_1                    13.01     13.01     13.01      0.01         0.01
  D67_17.A_1                  0.24      0.24      0.24      0.01         0.01
  D67_17.A_4                  0.23      0.23      0.23      0.01         0.03
  D67_TrunkC_1                0.01      0.01      0.01      0.06         0.01
  D67_17.B_1                  0.12      0.12      0.12      0.01         0.01
  D67_TrunkC_19               0.10      0.10      0.10      0.01         0.01
  D67_17.B_4                  0.10      0.10      0.10      0.01         0.01
  D67_17.B_7                  0.10      0.10      0.10      0.01         0.01
  D67_17.B_10                 0.09      0.09      0.09      0.01         0.01
  D67_18_1                    0.39      0.39      0.39      0.01         0.01
  D67_18_4                    0.38      0.38      0.38      0.01         0.01
  D67_4_1                     0.21      0.21      0.21      0.01         0.01
  D67_18_7                    0.28      0.28      0.28      0.01         0.01
  D67_18_10                   0.15      0.15      0.15      0.01         0.01
  D67_18_13                   0.10      0.10      0.10      0.01         0.01
  D67_18_16                   0.08      0.08      0.08      0.01         0.01
  D67_18_19                   0.07      0.07      0.08      0.01         0.03
  D67_18_25                   0.01      0.01      0.01      0.01         0.01
  D67_18_28                   0.01      0.01      0.01      0.01         0.01
  D67_9_1                    13.23     13.23     13.23      0.60         1.20
  D67_18.A_1                  0.66      0.66      0.67      0.01         0.08
  D67_18.A_4                  0.65      0.65      0.65      0.01         0.31
  D67_18.A_7                  0.36      0.36      0.36      0.01         0.02
  D67_18.A_10                 0.14      0.14      0.14      0.01         0.01
  D67_18.A_13                 0.11      0.11      0.11      0.01         0.01
  D67_18.A_16                 0.10      0.10      0.10      0.01         0.01
  D67_18.B_1                  0.17      0.17      0.17      0.01         0.01
  D67_18.B_4                  0.03      0.03      0.03      0.01         0.01
  D67_9_4                     0.54      0.54      0.54      0.24         0.24
  D67_19_4                    0.01      0.01      0.01      0.36         0.01
  D67_19_7                    0.14      0.14      0.14      0.01         0.01
  D67_19_10                   0.04      0.04      0.04      0.01         0.01
  D67_19_13                   0.04      0.04      0.04      0.01         0.01
  D67_19_16                   0.03      0.03      0.03      0.01         0.01
  D67_19.A_1                  0.04      0.04      0.04      0.01         0.01
  D67_19.B_1                  0.17      0.17      0.17      0.01         0.01
  D67_10_1                    0.47      0.47      0.47      0.34         0.34
  D67_19.C_1                  0.04      0.04      0.04      0.01         0.01
  D67_20_4                    0.01      0.01      0.01      0.19         0.01
  D67_20_7                    0.04      0.04      0.04      0.01         0.01
  D67_20_10                   0.08      0.08      0.08      0.01         0.01
  D67_20.A_4                  0.12      0.12      0.12      0.01         0.01
  D67_11_1                    0.42      0.42      0.42      0.18         0.11
  D67_11_4                    0.46      0.46      0.47      0.01         0.05
  CD67-000                   17.36     17.36     17.36      0.01         0.01
  CD67-002                   17.37     17.37     17.37      0.01         0.01
  CD67-006                   17.39     17.39     17.39      0.01         0.01
  CD67-008                   17.40     17.40     17.40      0.01         0.01
  CD67-010                   17.42     17.42     17.42      0.01         0.01
  CD67-012                   17.43     17.43     17.43      0.01         0.01
  D68_SnyderAve_12.A_4       12.18     12.18     12.18      0.01         0.01
  D68_SnyderAve_12.A_7       17.55     17.55     17.55      0.01         0.01
  D68_SnyderAve_22_13        12.46     12.46     12.46      0.01         0.02
  D68_SnyderAve_12.B_1       17.25     17.25     17.25      0.01         0.01
  D68_SnyderAve_22_22        13.25     13.25     13.25      0.12         3.83
  D68_SnyderAve_22_25        12.45     12.45     12.45      0.01         5.72
  D68_SnyderAve_22_37        12.50     12.50     12.50      0.01         3.64
  D68_SnyderAve_12.B_4       17.29     17.29     17.30      0.01         0.03
  D68_SnyderAve_23.A_4       12.17     12.17     12.17      0.01         0.01
  D68_SnyderAve_23_1         12.13     12.13     12.13      0.01         0.01
  D68_SnyderAve_23_4         12.25     12.25     12.25      0.01         0.01
  D68_SnyderAve_12.B_7       16.02     16.02     16.03      0.01         0.01
  D68_SnyderAve_12.B_10       18.77     18.77     18.77      0.01         0.01
  D68_SnyderAve_12_7         17.09     17.09     17.09      0.01         0.01
  D68_SnyderAve_12_10        17.07     17.07     17.07      0.01         0.01
  D68_SnyderAve_3_4          19.46     19.46     19.46      0.21         0.21
  D68_SnyderAve_3_22         19.14     19.14     19.14      0.01         0.01
  D68_SnyderAve_15_1         16.60     16.60     16.60      0.01         0.01
  D68_SnyderAve_17_4         16.29     16.29     16.30      0.01         0.01
  D68_SnyderAve_18_1         12.21     12.21     12.21      0.01         0.01
  D68_SnyderAve_18_4         12.21     12.21     12.21      0.01         0.07
  D68_SnyderAve_5_4          17.31     17.31     17.31      0.01         0.01
  D68_SnyderAve_5_16         16.89     16.89     16.89      0.01         1.06
  D68_SnyderAve_5_25         16.89     16.89     16.89      0.01         0.01
  D68_SnyderAve_9_1          21.94     21.94     21.94      0.01         0.01
  D68_SnyderAve_Trunk_10       12.17     12.17     12.17      0.01         0.01
  D68_SnyderAve_Trunk_49       12.06     12.06     12.06      0.01         0.01
  D68_SnyderAve_Trunk_70       12.04     12.04     12.05      0.01         0.01
  D68_SnyderAve_Trunk_88       12.17     12.17     12.17      0.01         5.69
  D68_SnyderAve_Trunk_151       12.04     12.04     12.04      0.01         1.79
  D68_SnyderAve_20.A_1       12.23     12.23     12.23      0.01         0.01
  D68_SnyderAve_20.A_4       13.60     13.60     13.60      0.01         0.01
  D68_SnyderAve_20.A_7       14.81     14.81     14.81      0.01         0.01
  D68_SnyderAve_20.B_1       10.34     10.34     10.34      0.01         0.01
  D68_SnyderAve_20.B_7       12.92     12.92     12.92      0.01         0.01
  D68_SnyderAve_20_1         11.88     11.88     11.88      0.01         0.01
  D68_SnyderAve_20_4         13.63     13.63     13.63      0.01         0.01
  D68_SnyderAve_20_7         12.45     12.45     12.45      0.01         0.01
  D68_SnyderAve_20_10        12.67     12.67     12.67      0.01         0.01
  D68_SnyderAve_21_1         12.06     12.06     12.06      0.01         0.01
  D68_SnyderAve_22.A_1       12.31     12.31     12.31      0.01         0.01
  D68_SnyderAve_22.A_4       15.51     15.51     15.51      0.01         3.99
  D68_SnyderAve_22.A_7       15.44     15.44     15.44      0.01         3.80
  D68_SnyderAve_22.A_10       13.67     13.67     13.67      0.18         0.18
  D68_SnyderAve_22.A_13       14.70     14.70     14.70      0.01         0.01
  D68_SnyderAve_22.B_1       12.19     12.19     12.19      0.01         4.13
  D68_SnyderAve_22.B_4       13.84     13.84     13.84      0.01         3.37
  D68_SnyderAve_22.B_10       13.55     13.55     13.55      0.01         0.01
  D68_SnyderAve_12.A_1       17.88     17.88     17.88      0.01         0.01
  D66_1_1                     0.22      0.22      0.22      0.01         0.01
  D66_11_16                  12.04     12.04     12.04      0.01         0.01
  D66_13_7                   14.79     14.79     14.79      0.01         0.01
  D66_6.A_4                  17.62     17.62     17.62      0.01         0.01
  D66_6.A_7                  17.47     17.47     17.47      0.01         0.01
  D66_6.B_1                  16.88     16.88     16.88      0.01         0.01
  D66_6.B_4                  13.63     13.63     13.63      0.01         0.01
  D66_6.B_7                  13.43     13.43     13.43      0.01         0.01
  D66_6.B_10                 16.92     16.92     16.92      0.01         0.01
  D66_6_1                    16.86     16.86     16.86      0.01         0.01
  D66_6_4                    16.94     16.94     16.94      0.01         0.01
  D66_6_13                   17.20     17.20     17.20      0.01         0.01
  D66_8.B_4                   0.11      0.11      0.11      0.01         0.01
  D66_8.C_1                   0.15      0.15      0.15      0.01         0.01
  D66_8_1                     0.04      0.04      0.04      0.01         0.01
  D66_8_4                     0.03      0.03      0.04      0.01         0.01
  D66_2_4                    12.59     12.59     12.59      0.01         0.01
  1                           0.01      0.01      0.01      0.15         0.01
  

  Analysis begun on:  Tue Nov 22 13:56:32 2016
  Analysis ended on:  Tue Nov 22 13:56:45 2016
  Total elapsed time: 00:00:13